   Input file: C:\Users\Andre\Desktop\Iniciação shell\Phreeqc\Variation_of_CO2_solubility_in_seawater.pqi
  Output file: C:\Users\Andre\Desktop\Iniciação shell\Phreeqc\Variation_of_CO2_solubility_in_seawater.pqo
Database file: C:\Program Files (x86)\USGS\Phreeqc Interactive 3.4.0-12927\database\phreeqc.dat

------------------
Reading data base.
------------------

	SOLUTION_MASTER_SPECIES
	SOLUTION_SPECIES
	PHASES
	EXCHANGE_MASTER_SPECIES
	EXCHANGE_SPECIES
	SURFACE_MASTER_SPECIES
	SURFACE_SPECIES
	RATES
	END
------------------------------------
Reading input data for simulation 1.
------------------------------------

	DATABASE C:\Program Files (x86)\USGS\Phreeqc Interactive 3.4.0-12927\database\phreeqc.dat
	SOLUTION 1
	    temp      25
	    pH        8.22
	    pe        8.451
	    redox     pe
	    units     ppm
	    density   1.023
	    Ca        412.3
	    Alkalinity 141.682
	    Cl        19353
	    Fe        0.002
	    K         399.1
	    Na        10768
	    S(6)      2712
	    water    1.023 # kg
	SOLUTION 2
	    temp      50
	    pH        8.22
	    pe        8.451
	    redox     pe
	    units     ppm
	    density   1.023
	    Alkalinity 141.682
	    Ca        412.3
	    Cl        19353
	    Fe        0.002
	    K         399.1
	    Na        10768
	    S(6)      2712
	    water    1.023 # kg
	SOLUTION 3
	    temp      80
	    pH        8.22
	    pe        8.451
	    redox     pe
	    units     ppm
	    density   1.023
	    Alkalinity 141.682
	    Ca        412.3
	    Cl        19353
	    Fe        0.002
	    K         399.1
	    Na        10768
	    S(6)      2712
	    water    1.023 # kg
	SAVE solution 1
	SAVE solution 2
	SAVE solution 3
	END
-------------------------------------------
Beginning of initial solution calculations.
-------------------------------------------

Initial solution 1.	

-----------------------------Solution composition------------------------------

	Elements           Molality       Moles

	Alkalinity        2.930e-03   2.997e-03
	Ca                1.065e-02   1.089e-02
	Cl                5.650e-01   5.780e-01
	Fe                3.706e-08   3.792e-08
	K                 1.056e-02   1.081e-02
	Na                4.848e-01   4.959e-01
	S(6)              2.922e-02   2.989e-02

----------------------------Description of solution----------------------------

                                       pH  =   8.220    
                                       pe  =   8.451    
      Specific Conductance (µS/cm,  25°C)  = 51337
                          Density (g/cm³)  =   1.02088
                               Volume (L)  =   1.03714
                        Activity of water  =   0.981
                 Ionic strength (mol/kgw)  =   5.871e-01
                       Mass of water (kg)  =   1.023e+00
                    Total carbon (mol/kg)  =   2.750e-03
                       Total CO2 (mol/kg)  =   2.750e-03
                         Temperature (°C)  =  25.00
                  Electrical balance (eq)  =  -1.122e-01
 Percent error, 100*(Cat-|An|)/(Cat+|An|)  =  -9.81
                               Iterations  =   7
                                  Total H  = 1.135683e+02
                                  Total O  = 5.691084e+01

----------------------------Distribution of species----------------------------

                                               Log       Log       Log    mole V
   Species          Molality    Activity  Molality  Activity     Gamma   cm³/mol

   OH-             2.660e-06   1.649e-06    -5.575    -5.783    -0.208     -2.78
   H+              7.937e-09   6.026e-09    -8.100    -8.220    -0.120      0.00
   H2O             5.551e+01   9.814e-01     1.744    -0.008     0.000     18.07
C(4)          2.750e-03
   HCO3-           2.217e-03   1.514e-03    -2.654    -2.820    -0.166     26.73
   NaHCO3          2.534e-04   2.901e-04    -3.596    -3.537     0.059      1.80
   NaCO3-          1.012e-04   7.477e-05    -3.995    -4.126    -0.131      2.42
   CaHCO3+         6.481e-05   4.529e-05    -4.188    -4.344    -0.156      9.95
   CO3-2           5.419e-05   1.178e-05    -4.266    -4.929    -0.663     -2.22
   CaCO3           4.054e-05   4.641e-05    -4.392    -4.333     0.059    -14.60
   CO2             1.826e-05   2.090e-05    -4.739    -4.680     0.059     34.43
   (CO2)2          7.004e-12   8.018e-12   -11.155   -11.096     0.059     68.87
   FeCO3           2.456e-16   2.811e-16   -15.610   -15.551     0.059     (0)  
   FeHCO3+         2.038e-16   1.506e-16   -15.691   -15.822    -0.131     (0)  
Ca            1.065e-02
   Ca+2            9.232e-03   2.344e-03    -2.035    -2.630    -0.595    -16.77
   CaSO4           1.309e-03   1.499e-03    -2.883    -2.824     0.059      7.50
   CaHCO3+         6.481e-05   4.529e-05    -4.188    -4.344    -0.156      9.95
   CaCO3           4.054e-05   4.641e-05    -4.392    -4.333     0.059    -14.60
   CaOH+           8.577e-08   6.337e-08    -7.067    -7.198    -0.131     (0)  
   CaHSO4+         8.034e-11   5.936e-11   -10.095   -10.226    -0.131     (0)  
Cl            5.650e-01
   Cl-             5.650e-01   3.612e-01    -0.248    -0.442    -0.194     18.74
   FeCl+           6.711e-16   4.959e-16   -15.173   -15.305    -0.131     (0)  
   FeCl+2          1.440e-18   2.927e-19   -17.841   -18.534    -0.692     (0)  
   FeCl2+          7.034e-19   4.722e-19   -18.153   -18.326    -0.173     (0)  
   FeCl3           1.490e-20   1.706e-20   -19.827   -19.768     0.059     (0)  
Fe(2)         5.924e-15
   Fe+2            4.172e-15   9.944e-16   -14.380   -15.002    -0.623    -20.79
   FeCl+           6.711e-16   4.959e-16   -15.173   -15.305    -0.131     (0)  
   FeSO4           5.554e-16   6.358e-16   -15.255   -15.197     0.059     18.97
   FeCO3           2.456e-16   2.811e-16   -15.610   -15.551     0.059     (0)  
   FeHCO3+         2.038e-16   1.506e-16   -15.691   -15.822    -0.131     (0)  
   FeOH+           7.629e-17   5.122e-17   -16.118   -16.291    -0.173     (0)  
   Fe(OH)2         6.203e-20   7.101e-20   -19.207   -19.149     0.059     (0)  
   Fe(OH)3-        6.400e-22   4.297e-22   -21.194   -21.367    -0.173     (0)  
   FeHSO4+         3.408e-23   2.518e-23   -22.468   -22.599    -0.131     (0)  
Fe(3)         3.706e-08
   Fe(OH)3         2.789e-08   3.193e-08    -7.555    -7.496     0.059     (0)  
   Fe(OH)4-        6.945e-09   4.743e-09    -8.158    -8.324    -0.166     (0)  
   Fe(OH)2+        2.228e-09   1.522e-09    -8.652    -8.818    -0.166     (0)  
   FeOH+2          1.389e-13   2.821e-14   -12.857   -13.550    -0.692     (0)  
   FeSO4+          1.575e-18   1.058e-18   -17.803   -17.976    -0.173     (0)  
   FeCl+2          1.440e-18   2.927e-19   -17.841   -18.534    -0.692     (0)  
   FeCl2+          7.034e-19   4.722e-19   -18.153   -18.326    -0.173     (0)  
   Fe+3            3.204e-19   2.683e-20   -18.494   -19.571    -1.077     (0)  
   Fe(SO4)2-       1.126e-19   8.317e-20   -18.949   -19.080    -0.131     (0)  
   FeCl3           1.490e-20   1.706e-20   -19.827   -19.768     0.059     (0)  
   Fe2(OH)2+4      2.715e-24   2.142e-26   -23.566   -25.669    -2.103     (0)  
   FeHSO4+2        5.725e-26   1.706e-26   -25.242   -25.768    -0.526     (0)  
   Fe3(OH)4+5      1.315e-29   6.811e-33   -28.881   -32.167    -3.286     (0)  
H(0)          5.628e-37
   H2              2.814e-37   3.221e-37   -36.551   -36.492     0.059     28.61
K             1.056e-02
   K+              1.032e-02   6.528e-03    -1.986    -2.185    -0.199      9.61
   KSO4-           2.415e-04   1.649e-04    -3.617    -3.783    -0.166     34.80
Na            4.848e-01
   Na+             4.754e-01   3.407e-01    -0.323    -0.468    -0.145     -0.56
   NaSO4-          8.990e-03   6.139e-03    -2.046    -2.212    -0.166     20.66
   NaHCO3          2.534e-04   2.901e-04    -3.596    -3.537     0.059      1.80
   NaCO3-          1.012e-04   7.477e-05    -3.995    -4.126    -0.131      2.42
   NaOH            4.907e-17   5.617e-17   -16.309   -16.250     0.059     (0)  
O(0)          6.762e-20
   O2              3.381e-20   3.870e-20   -19.471   -19.412     0.059     30.40
S(6)          2.922e-02
   SO4-2           1.868e-02   3.595e-03    -1.729    -2.444    -0.716     17.29
   NaSO4-          8.990e-03   6.139e-03    -2.046    -2.212    -0.166     20.66
   CaSO4           1.309e-03   1.499e-03    -2.883    -2.824     0.059      7.50
   KSO4-           2.415e-04   1.649e-04    -3.617    -3.783    -0.166     34.80
   HSO4-           2.850e-09   2.106e-09    -8.545    -8.677    -0.131     40.92
   CaHSO4+         8.034e-11   5.936e-11   -10.095   -10.226    -0.131     (0)  
   FeSO4           5.554e-16   6.358e-16   -15.255   -15.197     0.059     18.97
   FeSO4+          1.575e-18   1.058e-18   -17.803   -17.976    -0.173     (0)  
   Fe(SO4)2-       1.126e-19   8.317e-20   -18.949   -19.080    -0.131     (0)  
   FeHSO4+         3.408e-23   2.518e-23   -22.468   -22.599    -0.131     (0)  
   FeHSO4+2        5.725e-26   1.706e-26   -25.242   -25.768    -0.526     (0)  

------------------------------Saturation indices-------------------------------

  Phase               SI** log IAP   log K(298 K,   1 atm)

  Anhydrite        -0.80     -5.07   -4.28  CaSO4
  Aragonite         0.78     -7.56   -8.34  CaCO3
  Calcite           0.92     -7.56   -8.48  CaCO3
  CO2(g)           -3.21     -4.68   -1.47  CO2
  Fe(OH)3(a)        0.17      5.06    4.89  Fe(OH)3
  Goethite          6.07      5.07   -1.00  FeOOH
  Gypsum           -0.51     -5.09   -4.58  CaSO4:2H2O
  H2(g)           -33.39    -36.49   -3.10  H2
  H2O(g)           -1.51     -0.01    1.50  H2O
  Halite           -2.48     -0.91    1.57  NaCl
  Hematite         14.16     10.15   -4.01  Fe2O3
  Jarosite-K       -7.31    -16.52   -9.21  KFe3(SO4)2(OH)6
  Melanterite     -15.29    -17.50   -2.21  FeSO4:7H2O
  O2(g)           -16.52    -19.41   -2.89  O2
  Siderite         -9.04    -19.93  -10.89  FeCO3
  Sylvite          -3.53     -2.63    0.90  KCl

**For a gas, SI = log10(fugacity). Fugacity = pressure * phi / 1 atm.
  For ideal gases, phi = 1.

Initial solution 2.	

-----------------------------Solution composition------------------------------

	Elements           Molality       Moles

	Alkalinity        2.930e-03   2.997e-03
	Ca                1.065e-02   1.089e-02
	Cl                5.650e-01   5.780e-01
	Fe                3.706e-08   3.792e-08
	K                 1.056e-02   1.081e-02
	Na                4.848e-01   4.959e-01
	S(6)              2.922e-02   2.989e-02

----------------------------Description of solution----------------------------

                                       pH  =   8.220    
                                       pe  =   8.451    
      Specific Conductance (µS/cm,  50°C)  = 78906
                          Density (g/cm³)  =   1.01114
                               Volume (L)  =   1.04711
                        Activity of water  =   0.981
                 Ionic strength (mol/kgw)  =   5.857e-01
                       Mass of water (kg)  =   1.023e+00
                    Total carbon (mol/kg)  =   2.436e-03
                       Total CO2 (mol/kg)  =   2.436e-03
                         Temperature (°C)  =  50.00
                  Electrical balance (eq)  =  -1.122e-01
 Percent error, 100*(Cat-|An|)/(Cat+|An|)  =  -9.83
                               Iterations  =   8
                                  Total H  = 1.135677e+02
                                  Total O  = 5.690990e+01

----------------------------Distribution of species----------------------------

                                               Log       Log       Log    mole V
   Species          Molality    Activity  Molality  Activity     Gamma   cm³/mol

   OH-             1.467e-05   8.915e-06    -4.834    -5.050    -0.216     -2.28
   H+              8.022e-09   6.026e-09    -8.096    -8.220    -0.124      0.00
   H2O             5.551e+01   9.815e-01     1.744    -0.008     0.000     18.23
C(4)          2.436e-03
   HCO3-           1.709e-03   1.149e-03    -2.767    -2.940    -0.172     27.65
   NaCO3-          3.491e-04   2.542e-04    -3.457    -3.595    -0.138      3.97
   NaHCO3          1.656e-04   1.895e-04    -3.781    -3.722     0.059      1.80
   CaCO3           7.952e-05   9.100e-05    -4.100    -4.041     0.059    -14.53
   CO3-2           6.239e-05   1.277e-05    -4.205    -4.894    -0.689     -2.25
   CaHCO3+         5.881e-05   4.051e-05    -4.231    -4.392    -0.162     10.65
   CO2             1.191e-05   1.363e-05    -4.924    -4.866     0.059     35.66
   (CO2)2          6.090e-12   6.970e-12   -11.215   -11.157     0.059     71.32
   FeCO3           2.349e-18   2.688e-18   -17.629   -17.571     0.059     (0)  
   FeHCO3+         1.386e-18   1.009e-18   -17.858   -17.996    -0.138     (0)  
Ca            1.065e-02
   Ca+2            9.186e-03   2.187e-03    -2.037    -2.660    -0.623    -16.50
   CaSO4           1.323e-03   1.514e-03    -2.879    -2.820     0.059      8.19
   CaCO3           7.952e-05   9.100e-05    -4.100    -4.041     0.059    -14.53
   CaHCO3+         5.881e-05   4.051e-05    -4.231    -4.392    -0.162     10.65
   CaOH+           8.118e-08   5.911e-08    -7.091    -7.228    -0.138     (0)  
   CaHSO4+         1.256e-10   9.142e-11    -9.901   -10.039    -0.138     (0)  
Cl            5.650e-01
   Cl-             5.650e-01   3.543e-01    -0.248    -0.451    -0.203     19.04
   FeCl+           5.896e-18   4.293e-18   -17.229   -17.367    -0.138     (0)  
   FeCl+2          9.777e-20   1.863e-20   -19.010   -19.730    -0.720     (0)  
   FeCl2+          2.148e-20   1.419e-20   -19.668   -19.848    -0.180     (0)  
   FeCl3           4.393e-22   5.028e-22   -21.357   -21.299     0.059     (0)  
Fe(2)         5.928e-17
   Fe+2            3.898e-17   8.778e-18   -16.409   -17.057    -0.647    -19.54
   FeSO4           6.809e-18   7.792e-18   -17.167   -17.108     0.059     -0.31
   FeCl+           5.896e-18   4.293e-18   -17.229   -17.367    -0.138     (0)  
   FeOH+           3.835e-18   2.534e-18   -17.416   -17.596    -0.180     (0)  
   FeCO3           2.349e-18   2.688e-18   -17.629   -17.571     0.059     (0)  
   FeHCO3+         1.386e-18   1.009e-18   -17.858   -17.996    -0.138     (0)  
   Fe(OH)2         2.282e-20   2.612e-20   -19.642   -19.583     0.059     (0)  
   Fe(OH)3-        3.000e-22   1.982e-22   -21.523   -21.703    -0.180     (0)  
   FeHSO4+         5.040e-25   3.670e-25   -24.298   -24.435    -0.138     (0)  
Fe(3)         3.706e-08
   Fe(OH)3         2.222e-08   2.542e-08    -7.653    -7.595     0.059     (0)  
   Fe(OH)4-        1.419e-08   9.543e-09    -7.848    -8.020    -0.172     (0)  
   Fe(OH)2+        6.592e-10   4.433e-10    -9.181    -9.353    -0.172     (0)  
   FeOH+2          1.798e-14   3.427e-15   -13.745   -14.465    -0.720     (0)  
   FeCl+2          9.777e-20   1.863e-20   -19.010   -19.730    -0.720     (0)  
   FeSO4+          7.588e-20   5.013e-20   -19.120   -19.300    -0.180     (0)  
   FeCl2+          2.148e-20   1.419e-20   -19.668   -19.848    -0.180     (0)  
   Fe+3            1.102e-20   8.381e-22   -19.958   -21.077    -1.119     (0)  
   Fe(SO4)2-       5.398e-21   3.930e-21   -20.268   -20.406    -0.138     (0)  
   FeCl3           4.393e-22   5.028e-22   -21.357   -21.299     0.059     (0)  
   Fe2(OH)2+4      1.954e-26   1.219e-28   -25.709   -27.914    -2.205     (0)  
   FeHSO4+2        3.132e-27   8.802e-28   -26.504   -27.055    -0.551     (0)  
   Fe3(OH)4+5      3.748e-33   1.344e-36   -32.426   -35.872    -3.446     (0)  
H(0)          4.474e-37
   H2              2.237e-37   2.560e-37   -36.650   -36.592     0.059     28.59
K             1.056e-02
   K+              1.024e-02   6.349e-03    -1.990    -2.197    -0.208     10.21
   KSO4-           3.248e-04   2.184e-04    -3.488    -3.661    -0.172     35.21
Na            4.848e-01
   Na+             4.748e-01   3.341e-01    -0.323    -0.476    -0.153      0.27
   NaSO4-          9.436e-03   6.346e-03    -2.025    -2.197    -0.172     19.85
   NaCO3-          3.491e-04   2.542e-04    -3.457    -3.595    -0.138      3.97
   NaHCO3          1.656e-04   1.895e-04    -3.781    -3.722     0.059      1.80
   NaOH            2.603e-16   2.979e-16   -15.585   -15.526     0.059     (0)  
O(0)          2.976e-12
   O2              1.488e-12   1.703e-12   -11.827   -11.769     0.059     31.92
S(6)          2.922e-02
   SO4-2           1.814e-02   3.274e-03    -1.741    -2.485    -0.743     19.57
   NaSO4-          9.436e-03   6.346e-03    -2.025    -2.197    -0.172     19.85
   CaSO4           1.323e-03   1.514e-03    -2.879    -2.820     0.059      8.19
   KSO4-           3.248e-04   2.184e-04    -3.488    -3.661    -0.172     35.21
   HSO4-           4.776e-09   3.477e-09    -8.321    -8.459    -0.138     42.06
   CaHSO4+         1.256e-10   9.142e-11    -9.901   -10.039    -0.138     (0)  
   FeSO4           6.809e-18   7.792e-18   -17.167   -17.108     0.059     -0.31
   FeSO4+          7.588e-20   5.013e-20   -19.120   -19.300    -0.180     (0)  
   Fe(SO4)2-       5.398e-21   3.930e-21   -20.268   -20.406    -0.138     (0)  
   FeHSO4+         5.040e-25   3.670e-25   -24.298   -24.435    -0.138     (0)  
   FeHSO4+2        3.132e-27   8.802e-28   -26.504   -27.055    -0.551     (0)  

------------------------------Saturation indices-------------------------------

  Phase               SI** log IAP   log K(323 K,   1 atm)

  Anhydrite        -0.57     -5.15   -4.58  CaSO4
  Aragonite         0.98     -7.55   -8.54  CaCO3
  Calcite           1.11     -7.55   -8.66  CaCO3
  CO2(g)           -3.15     -4.87   -1.71  CO2
  Fe(OH)3(a)       -1.33      3.56    4.89  Fe(OH)3
  Goethite          5.39      3.57   -1.82  FeOOH
  Gypsum           -0.54     -5.16   -4.62  CaSO4:2H2O
  H2(g)           -33.46    -36.59   -3.14  H2
  H2O(g)           -0.92     -0.01    0.92  H2O
  Halite           -2.52     -0.93    1.59  NaCl
  Hematite         12.90      7.14   -5.76  Fe2O3
  Jarosite-K      -10.14    -21.13  -10.98  KFe3(SO4)2(OH)6
  Melanterite     -17.64    -19.60   -1.95  FeSO4:7H2O
  O2(g)            -8.74    -11.77   -3.03  O2
  Siderite        -10.92    -21.95  -11.03  FeCO3
  Sylvite          -3.66     -2.65    1.02  KCl

**For a gas, SI = log10(fugacity). Fugacity = pressure * phi / 1 atm.
  For ideal gases, phi = 1.

Initial solution 3.	

-----------------------------Solution composition------------------------------

	Elements           Molality       Moles

	Alkalinity        2.930e-03   2.997e-03
	Ca                1.065e-02   1.089e-02
	Cl                5.650e-01   5.780e-01
	Fe                3.706e-08   3.792e-08
	K                 1.056e-02   1.081e-02
	Na                4.848e-01   4.959e-01
	S(6)              2.922e-02   2.989e-02

----------------------------Description of solution----------------------------

                                       pH  =   8.220    
                                       pe  =   8.451    
      Specific Conductance (µS/cm,  80°C)  = 114144
                          Density (g/cm³)  =   0.99478
                               Volume (L)  =   1.06431
                        Activity of water  =   0.981
                 Ionic strength (mol/kgw)  =   5.848e-01
                       Mass of water (kg)  =   1.023e+00
                    Total carbon (mol/kg)  =   1.990e-03
                       Total CO2 (mol/kg)  =   1.990e-03
                         Temperature (°C)  =  80.00
                  Electrical balance (eq)  =  -1.122e-01
 Percent error, 100*(Cat-|An|)/(Cat+|An|)  =  -9.84
                               Iterations  =   8
                                  Total H  = 1.135669e+02
                                  Total O  = 5.690876e+01

----------------------------Distribution of species----------------------------

                                               Log       Log       Log    mole V
   Species          Molality    Activity  Molality  Activity     Gamma   cm³/mol

   OH-             7.118e-05   4.199e-05    -4.148    -4.377    -0.229     -2.84
   H+              8.152e-09   6.026e-09    -8.089    -8.220    -0.131      0.00
   H2O             5.551e+01   9.815e-01     1.744    -0.008     0.000     18.54
C(4)          1.990e-03
   HCO3-           9.904e-04   6.510e-04    -3.004    -3.186    -0.182     27.60
   NaCO3-          7.143e-04   5.088e-04    -3.146    -3.293    -0.147      3.65
   CaCO3           1.185e-04   1.356e-04    -3.926    -3.868     0.058    -14.47
   NaHCO3          7.987e-05   9.138e-05    -4.098    -4.039     0.058      1.80
   CO3-2           4.335e-05   8.091e-06    -4.363    -5.092    -0.729     -5.67
   CaHCO3+         3.622e-05   2.442e-05    -4.441    -4.612    -0.171     11.02
   CO2             7.611e-06   8.708e-06    -5.119    -5.060     0.058     37.40
   (CO2)2          4.598e-12   5.261e-12   -11.337   -11.279     0.058     74.80
   FeCO3           9.676e-21   1.107e-20   -20.014   -19.956     0.058     (0)  
   FeHCO3+         5.213e-21   3.713e-21   -20.283   -20.430    -0.147     (0)  
Ca            1.065e-02
   Ca+2            9.212e-03   1.991e-03    -2.036    -2.701    -0.665    -16.75
   CaSO4           1.280e-03   1.464e-03    -2.893    -2.834     0.058      8.66
   CaCO3           1.185e-04   1.356e-04    -3.926    -3.868     0.058    -14.47
   CaHCO3+         3.622e-05   2.442e-05    -4.441    -4.612    -0.171     11.02
   CaOH+           7.554e-08   5.381e-08    -7.122    -7.269    -0.147     (0)  
   CaHSO4+         2.355e-10   1.677e-10    -9.628    -9.775    -0.147     (0)  
Cl            5.650e-01
   Cl-             5.650e-01   3.441e-01    -0.248    -0.463    -0.215     18.44
   FeCl+           3.803e-20   2.709e-20   -19.420   -19.567    -0.147     (0)  
   FeCl+2          5.129e-21   8.875e-22   -20.290   -21.052    -0.762     (0)  
   FeCl2+          4.853e-22   3.130e-22   -21.314   -21.504    -0.190     (0)  
   FeCl3           9.414e-24   1.077e-23   -23.026   -22.968     0.058     (0)  
Fe(2)         5.423e-19
   Fe+2            2.759e-19   5.704e-20   -18.559   -19.244    -0.685    -18.59
   FeOH+           1.463e-19   9.439e-20   -18.835   -19.025    -0.190     (0)  
   FeSO4           6.050e-20   6.922e-20   -19.218   -19.160     0.058    -13.27
   FeCl+           3.803e-20   2.709e-20   -19.420   -19.567    -0.147     (0)  
   FeCO3           9.676e-21   1.107e-20   -20.014   -19.956     0.058     (0)  
   Fe(OH)2         6.491e-21   7.427e-21   -20.188   -20.129     0.058     (0)  
   FeHCO3+         5.213e-21   3.713e-21   -20.283   -20.430    -0.147     (0)  
   Fe(OH)3-        1.100e-22   7.091e-23   -21.959   -22.149    -0.190     (0)  
   FeHSO4+         6.748e-27   4.807e-27   -26.171   -26.318    -0.147     (0)  
Fe(3)         3.706e-08
   Fe(OH)4-        2.310e-08   1.518e-08    -7.636    -7.819    -0.182     (0)  
   Fe(OH)3         1.382e-08   1.581e-08    -7.860    -7.801     0.058     (0)  
   Fe(OH)2+        1.514e-10   9.955e-11    -9.820   -10.002    -0.182     (0)  
   FeOH+2          1.833e-15   3.172e-16   -14.737   -15.499    -0.762     (0)  
   FeCl+2          5.129e-21   8.875e-22   -20.290   -21.052    -0.762     (0)  
   FeSO4+          2.719e-21   1.753e-21   -20.566   -20.756    -0.190     (0)  
   FeCl2+          4.853e-22   3.130e-22   -21.314   -21.504    -0.190     (0)  
   Fe+3            2.975e-22   1.960e-23   -21.527   -22.708    -1.181     (0)  
   Fe(SO4)2-       1.885e-22   1.343e-22   -21.725   -21.872    -0.147     (0)  
   FeCl3           9.414e-24   1.077e-23   -23.026   -22.968     0.058     (0)  
   FeHSO4+2        1.611e-28   4.148e-29   -27.793   -28.382    -0.589     (0)  
   Fe2(OH)2+4      9.040e-29   3.974e-31   -28.044   -30.401    -2.357     (0)  
   Fe3(OH)4+5      5.485e-37   1.139e-40   -36.261   -39.943    -3.683     (0)  
H(0)          3.546e-37
   H2              1.773e-37   2.029e-37   -36.751   -36.693     0.058     28.57
K             1.056e-02
   K+              1.014e-02   6.100e-03    -1.994    -2.215    -0.220     10.66
   KSO4-           4.281e-04   2.814e-04    -3.368    -3.551    -0.182     35.05
Na            4.848e-01
   Na+             4.743e-01   3.247e-01    -0.324    -0.489    -0.165      0.84
   NaSO4-          9.703e-03   6.378e-03    -2.013    -2.195    -0.182     17.36
   NaCO3-          7.143e-04   5.088e-04    -3.146    -3.293    -0.147      3.65
   NaHCO3          7.987e-05   9.138e-05    -4.098    -4.039     0.058      1.80
   NaOH            1.192e-15   1.363e-15   -14.924   -14.865     0.058     (0)  
O(0)          1.650e-04
   O2              8.248e-05   9.437e-05    -4.084    -4.025     0.058     33.17
S(6)          2.922e-02
   SO4-2           1.781e-02   2.920e-03    -1.749    -2.535    -0.785     19.69
   NaSO4-          9.703e-03   6.378e-03    -2.013    -2.195    -0.182     17.36
   CaSO4           1.280e-03   1.464e-03    -2.893    -2.834     0.058      8.66
   KSO4-           4.281e-04   2.814e-04    -3.368    -3.551    -0.182     35.05
   HSO4-           9.840e-09   7.009e-09    -8.007    -8.154    -0.147     42.34
   CaHSO4+         2.355e-10   1.677e-10    -9.628    -9.775    -0.147     (0)  
   FeSO4           6.050e-20   6.922e-20   -19.218   -19.160     0.058    -13.27
   FeSO4+          2.719e-21   1.753e-21   -20.566   -20.756    -0.190     (0)  
   Fe(SO4)2-       1.885e-22   1.343e-22   -21.725   -21.872    -0.147     (0)  
   FeHSO4+         6.748e-27   4.807e-27   -26.171   -26.318    -0.147     (0)  
   FeHSO4+2        1.611e-28   4.148e-29   -27.793   -28.382    -0.589     (0)  

------------------------------Saturation indices-------------------------------

  Phase               SI** log IAP   log K(353 K,   1 atm)

  Anhydrite        -0.26     -5.24   -4.98  CaSO4
  Aragonite         1.09     -7.79   -8.88  CaCO3
  Calcite           1.20     -7.79   -8.99  CaCO3
  CO2(g)           -3.16     -5.06   -1.90  CO2
  Fe(OH)3(a)       -2.96      1.93    4.89  Fe(OH)3
  Goethite          4.59      1.94   -2.65  FeOOH
  Gypsum           -0.51     -5.25   -4.74  CaSO4:2H2O
  H2(g)           -33.56    -36.69   -3.13  H2
  H2O(g)           -0.34     -0.01    0.33  H2O
  Halite           -2.56     -0.95    1.61  NaCl
  Hematite         11.41      3.88   -7.53  Fe2O3
  Jarosite-K      -13.36    -26.14  -12.78  KFe3(SO4)2(OH)6
  Melanterite     -20.09    -21.84   -1.74  FeSO4:7H2O
  O2(g)            -0.92     -4.03   -3.11  O2
  Siderite        -13.16    -24.34  -11.17  FeCO3
  Sylvite          -3.81     -2.68    1.13  KCl

**For a gas, SI = log10(fugacity). Fugacity = pressure * phi / 1 atm.
  For ideal gases, phi = 1.

------------------
End of simulation.
------------------

------------------------------------
Reading input data for simulation 2.
------------------------------------

	GAS_PHASE 1
	    fixed_pressure
	    pressure 1
	    volume 1
	    temperature 25
	    CO2(g)    1
	USE solution 1
	END
-----------------------------------------
Beginning of batch-reaction calculations.
-----------------------------------------

Reaction step 1.

Using solution 1.	
Using gas phase 1.	

-----------------------------------Gas phase-----------------------------------

Total pressure:  1.00      atmospheres          (Peng-Robinson calculation)
    Gas volume:   2.58e-01 liters
  Molar volume:   2.43e+01 liters/mole
   P * Vm / RT:  0.99445  (Compressibility Factor Z) 

                                                        Moles in gas
                                            ----------------------------------
Component         log P           P    phi     Initial       Final       Delta

CO2(g)             0.00   1.000e+00  0.994   4.110e-02   1.062e-02  -3.048e-02

-----------------------------Solution composition------------------------------

	Elements           Molality       Moles

	C                 3.254e-02   3.329e-02
	Ca                1.065e-02   1.089e-02
	Cl                5.650e-01   5.780e-01
	Fe                3.706e-08   3.792e-08
	K                 1.056e-02   1.081e-02
	Na                4.848e-01   4.959e-01
	S                 2.922e-02   2.989e-02

----------------------------Description of solution----------------------------

                                       pH  =   5.076      Charge balance
                                       pe  =  13.384      Adjusted to redox equilibrium
      Specific Conductance (µS/cm,  25°C)  = 51343
                          Density (g/cm³)  =   1.02114
                               Volume (L)  =   1.03818
                        Activity of water  =   0.981
                 Ionic strength (mol/kgw)  =   5.872e-01
                       Mass of water (kg)  =   1.023e+00
                 Total alkalinity (eq/kg)  =   2.930e-03
                       Total CO2 (mol/kg)  =   3.254e-02
                         Temperature (°C)  =  25.00
                  Electrical balance (eq)  =  -1.122e-01
 Percent error, 100*(Cat-|An|)/(Cat+|An|)  =  -9.81
                               Iterations  =  12
                                  Total H  = 1.135683e+02
                                  Total O  = 5.697180e+01

----------------------------Distribution of species----------------------------

                                               Log       Log       Log    mole V
   Species          Molality    Activity  Molality  Activity     Gamma   cm³/mol

   H+              1.106e-05   8.396e-06    -4.956    -5.076    -0.120      0.00
   OH-             1.908e-09   1.183e-09    -8.719    -8.927    -0.208     -2.78
   H2O             5.551e+01   9.809e-01     1.744    -0.008     0.000     18.07
C(-4)         0.000e+00
   CH4             0.000e+00   0.000e+00  -124.805  -124.746     0.059     35.46
C(4)          3.254e-02
   CO2             2.956e-02   3.384e-02    -1.529    -1.471     0.059     34.43
   HCO3-           2.575e-03   1.758e-03    -2.589    -2.755    -0.166     26.73
   NaHCO3          2.944e-04   3.370e-04    -3.531    -3.472     0.059      1.80
   CaHCO3+         7.549e-05   5.275e-05    -4.122    -4.278    -0.156      9.95
   (CO2)2          1.836e-05   2.102e-05    -4.736    -4.677     0.059     68.87
   NaCO3-          8.435e-08   6.233e-08    -7.074    -7.205    -0.131      2.42
   CO3-2           4.517e-08   9.822e-09    -7.345    -8.008    -0.663     -2.22
   CaCO3           3.389e-08   3.879e-08    -7.470    -7.411     0.059    -14.60
   FeHCO3+         8.111e-14   5.993e-14   -13.091   -13.222    -0.131     (0)  
   FeCO3           7.015e-17   8.031e-17   -16.154   -16.095     0.059     (0)  
Ca            1.065e-02
   Ca+2            9.259e-03   2.351e-03    -2.033    -2.629    -0.595    -16.77
   CaSO4           1.313e-03   1.503e-03    -2.882    -2.823     0.059      7.50
   CaHCO3+         7.549e-05   5.275e-05    -4.122    -4.278    -0.156      9.95
   CaHSO4+         1.122e-07   8.292e-08    -6.950    -7.081    -0.131     (0)  
   CaCO3           3.389e-08   3.879e-08    -7.470    -7.411     0.059    -14.60
   CaOH+           6.170e-11   4.559e-11   -10.210   -10.341    -0.131     (0)  
Cl            5.650e-01
   Cl-             5.650e-01   3.612e-01    -0.248    -0.442    -0.194     18.74
   FeCl+2          4.235e-11   8.605e-12   -10.373   -11.065    -0.692     (0)  
   FeCl2+          2.068e-11   1.388e-11   -10.684   -10.857    -0.173     (0)  
   FeCl3           4.381e-13   5.015e-13   -12.358   -12.300     0.059     (0)  
   FeCl+           2.300e-13   1.700e-13   -12.638   -12.770    -0.131     (0)  
Fe(2)         1.931e-12
   Fe+2            1.430e-12   3.408e-13   -11.845   -12.467    -0.623    -20.79
   FeCl+           2.300e-13   1.700e-13   -12.638   -12.770    -0.131     (0)  
   FeSO4           1.903e-13   2.178e-13   -12.721   -12.662     0.059     18.97
   FeHCO3+         8.111e-14   5.993e-14   -13.091   -13.222    -0.131     (0)  
   FeCO3           7.015e-17   8.031e-17   -16.154   -16.095     0.059     (0)  
   FeOH+           1.876e-17   1.259e-17   -16.727   -16.900    -0.173     (0)  
   FeHSO4+         1.627e-17   1.202e-17   -16.789   -16.920    -0.131     (0)  
   Fe(OH)2         1.094e-23   1.252e-23   -22.961   -22.902     0.059     (0)  
   Fe(OH)3-        8.096e-29   5.436e-29   -28.092   -28.265    -0.173     (0)  
   Fe(HS)2         0.000e+00   0.000e+00  -246.615  -246.557     0.059     (0)  
   Fe(HS)3-        0.000e+00   0.000e+00  -365.908  -366.039    -0.131     (0)  
Fe(3)         3.706e-08
   Fe(OH)2+        3.371e-08   2.302e-08    -7.472    -7.638    -0.166     (0)  
   FeOH+2          2.929e-09   5.950e-10    -8.533    -9.225    -0.692     (0)  
   Fe(OH)3         3.026e-10   3.465e-10    -9.519    -9.460     0.059     (0)  
   FeSO4+          4.630e-11   3.108e-11   -10.334   -10.507    -0.173     (0)  
   FeCl+2          4.235e-11   8.605e-12   -10.373   -11.065    -0.692     (0)  
   FeCl2+          2.068e-11   1.388e-11   -10.684   -10.857    -0.173     (0)  
   Fe+3            9.421e-12   7.888e-13   -11.026   -12.103    -1.077     (0)  
   Fe(SO4)2-       3.307e-12   2.444e-12   -11.481   -11.612    -0.131     (0)  
   FeCl3           4.381e-13   5.015e-13   -12.358   -12.300     0.059     (0)  
   Fe(OH)4-        5.406e-14   3.692e-14   -13.267   -13.433    -0.166     (0)  
   FeHSO4+2        2.344e-15   6.988e-16   -14.630   -15.156    -0.526     (0)  
   Fe2(OH)2+4      1.207e-15   9.529e-18   -14.918   -17.021    -2.103     (0)  
   Fe3(OH)4+5      8.846e-20   4.583e-23   -19.053   -22.339    -3.286     (0)  
H(0)          0.000e+00
   H2              0.000e+00   0.000e+00   -40.129   -40.071     0.059     28.61
K             1.056e-02
   K+              1.032e-02   6.528e-03    -1.986    -2.185    -0.199      9.61
   KSO4-           2.414e-04   1.649e-04    -3.617    -3.783    -0.166     34.80
Na            4.848e-01
   Na+             4.755e-01   3.408e-01    -0.323    -0.468    -0.145     -0.56
   NaSO4-          8.988e-03   6.138e-03    -2.046    -2.212    -0.166     20.66
   NaHCO3          2.944e-04   3.370e-04    -3.531    -3.472     0.059      1.80
   NaCO3-          8.435e-08   6.233e-08    -7.074    -7.205    -0.131      2.42
   NaOH            3.520e-20   4.030e-20   -19.453   -19.395     0.059     (0)  
O(0)          9.703e-13
   O2              4.852e-13   5.554e-13   -12.314   -12.255     0.059     30.40
S(-2)         0.000e+00
   H2S             0.000e+00   0.000e+00  -119.713  -119.654     0.059     37.16
   HS-             0.000e+00   0.000e+00  -121.312  -121.520    -0.208     21.30
   S-2             0.000e+00   0.000e+00  -128.670  -129.362    -0.692     (0)  
   Fe(HS)2         0.000e+00   0.000e+00  -246.615  -246.557     0.059     (0)  
   Fe(HS)3-        0.000e+00   0.000e+00  -365.908  -366.039    -0.131     (0)  
S(6)          2.922e-02
   SO4-2           1.867e-02   3.594e-03    -1.729    -2.444    -0.716     17.28
   NaSO4-          8.988e-03   6.138e-03    -2.046    -2.212    -0.166     20.66
   CaSO4           1.313e-03   1.503e-03    -2.882    -2.823     0.059      7.50
   KSO4-           2.414e-04   1.649e-04    -3.617    -3.783    -0.166     34.80
   HSO4-           3.970e-06   2.934e-06    -5.401    -5.533    -0.131     40.92
   CaHSO4+         1.122e-07   8.292e-08    -6.950    -7.081    -0.131     (0)  
   FeSO4+          4.630e-11   3.108e-11   -10.334   -10.507    -0.173     (0)  
   Fe(SO4)2-       3.307e-12   2.444e-12   -11.481   -11.612    -0.131     (0)  
   FeSO4           1.903e-13   2.178e-13   -12.721   -12.662     0.059     18.97
   FeHSO4+2        2.344e-15   6.988e-16   -14.630   -15.156    -0.526     (0)  
   FeHSO4+         1.627e-17   1.202e-17   -16.789   -16.920    -0.131     (0)  

------------------------------Saturation indices-------------------------------

  Phase               SI** log IAP   log K(298 K,   1 atm)

  Anhydrite        -0.80     -5.07   -4.28  CaSO4
  Aragonite        -2.30    -10.64   -8.34  CaCO3
  Calcite          -2.16    -10.64   -8.48  CaCO3
  CH4(g)         -121.94   -124.75   -2.80  CH4
  CO2(g)           -0.00     -1.47   -1.47  CO2	 Pressure   1.0 atm, phi 0.994
  Fe(OH)3(a)       -1.79      3.10    4.89  Fe(OH)3
  FeS(ppt)       -125.00   -128.91   -3.92  FeS
  Goethite          4.11      3.11   -1.00  FeOOH
  Gypsum           -0.51     -5.09   -4.58  CaSO4:2H2O
  H2(g)           -36.97    -40.07   -3.10  H2
  H2O(g)           -1.51     -0.01    1.50  H2O
  H2S(g)         -118.60   -126.60   -7.99  H2S
  Halite           -2.48     -0.91    1.57  NaCl
  Hematite         10.23      6.22   -4.01  Fe2O3
  Jarosite-K       -3.77    -12.98   -9.21  KFe3(SO4)2(OH)6
  Mackinawite    -124.26   -128.91   -4.65  FeS
  Melanterite     -12.76    -14.97   -2.21  FeSO4:7H2O
  O2(g)            -9.36    -12.26   -2.89  O2
  Pyrite         -200.11   -218.59  -18.48  FeS2
  Siderite         -9.59    -20.48  -10.89  FeCO3
  Sulfur          -87.62    -82.73    4.88  S
  Sylvite          -3.53     -2.63    0.90  KCl

**For a gas, SI = log10(fugacity). Fugacity = pressure * phi / 1 atm.
  For ideal gases, phi = 1.

------------------
End of simulation.
------------------

------------------------------------
Reading input data for simulation 3.
------------------------------------

	GAS_PHASE 2
	    fixed_pressure
	    pressure 1
	    volume 1
	    temperature 50
	    CO2(g)    1
	USE solution 2
	END
-----------------------------------------
Beginning of batch-reaction calculations.
-----------------------------------------

Reaction step 1.

Using solution 2.	
Using gas phase 2.	

-----------------------------------Gas phase-----------------------------------

Total pressure:  1.00      atmospheres          (Peng-Robinson calculation)
    Gas volume:   5.28e-01 liters
  Molar volume:   2.64e+01 liters/mole
   P * Vm / RT:  0.99568  (Compressibility Factor Z) 

                                                        Moles in gas
                                            ----------------------------------
Component         log P           P    phi     Initial       Final       Delta

CO2(g)             0.00   1.000e+00  0.996   3.787e-02   2.001e-02  -1.786e-02

-----------------------------Solution composition------------------------------

	Elements           Molality       Moles

	C                 1.990e-02   2.035e-02
	Ca                1.065e-02   1.089e-02
	Cl                5.650e-01   5.780e-01
	Fe                3.706e-08   3.792e-08
	K                 1.056e-02   1.081e-02
	Na                4.848e-01   4.959e-01
	S                 2.922e-02   2.989e-02

----------------------------Description of solution----------------------------

                                       pH  =   5.249      Charge balance
                                       pe  =  11.459      Adjusted to redox equilibrium
      Specific Conductance (µS/cm,  50°C)  = 78920
                          Density (g/cm³)  =   1.01128
                               Volume (L)  =   1.04774
                        Activity of water  =   0.981
                 Ionic strength (mol/kgw)  =   5.861e-01
                       Mass of water (kg)  =   1.023e+00
                 Total alkalinity (eq/kg)  =   2.930e-03
                       Total CO2 (mol/kg)  =   1.990e-02
                         Temperature (°C)  =  50.00
                  Electrical balance (eq)  =  -1.122e-01
 Percent error, 100*(Cat-|An|)/(Cat+|An|)  =  -9.82
                               Iterations  =  10
                                  Total H  = 1.135677e+02
                                  Total O  = 5.694563e+01

----------------------------Distribution of species----------------------------

                                               Log       Log       Log    mole V
   Species          Molality    Activity  Molality  Activity     Gamma   cm³/mol

   H+              7.500e-06   5.633e-06    -5.125    -5.249    -0.124      0.00
   OH-             1.569e-08   9.533e-09    -7.804    -8.021    -0.216     -2.28
   H2O             5.551e+01   9.812e-01     1.744    -0.008     0.000     18.23
C(-4)         0.000e+00
   CH4             0.000e+00   0.000e+00  -114.271  -114.213     0.059     37.33
C(4)          1.990e-02
   CO2             1.693e-02   1.938e-02    -1.771    -1.713     0.059     35.66
   HCO3-           2.599e-03   1.748e-03    -2.585    -2.758    -0.172     27.65
   NaHCO3          2.519e-04   2.883e-04    -3.599    -3.540     0.059      1.80
   CaHCO3+         8.985e-05   6.189e-05    -4.046    -4.208    -0.162     10.65
   (CO2)2          1.232e-05   1.410e-05    -4.910    -4.851     0.059     71.32
   NaCO3-          5.682e-07   4.137e-07    -6.246    -6.383    -0.138      3.97
   CaCO3           1.299e-07   1.487e-07    -6.886    -6.828     0.059    -14.53
   CO3-2           1.015e-07   2.076e-08    -6.994    -7.683    -0.689     -2.25
   FeHCO3+         9.579e-14   6.974e-14   -13.019   -13.156    -0.138     (0)  
   FeCO3           1.737e-16   1.988e-16   -15.760   -15.702     0.059     (0)  
Ca            1.065e-02
   Ca+2            9.229e-03   2.197e-03    -2.035    -2.658    -0.623    -16.50
   CaSO4           1.328e-03   1.520e-03    -2.877    -2.818     0.059      8.19
   CaHCO3+         8.985e-05   6.189e-05    -4.046    -4.208    -0.162     10.65
   CaCO3           1.299e-07   1.487e-07    -6.886    -6.828     0.059    -14.53
   CaHSO4+         1.178e-07   8.580e-08    -6.929    -7.067    -0.138     (0)  
   CaOH+           8.721e-11   6.350e-11   -10.059   -10.197    -0.138     (0)  
Cl            5.650e-01
   Cl-             5.650e-01   3.543e-01    -0.248    -0.451    -0.203     19.04
   FeCl+2          4.528e-12   8.626e-13   -11.344   -12.064    -0.720     (0)  
   FeCl2+          9.945e-13   6.571e-13   -12.002   -12.182    -0.180     (0)  
   FeCl+           2.680e-13   1.951e-13   -12.572   -12.710    -0.138     (0)  
   FeCl3           2.034e-14   2.328e-14   -13.692   -13.633     0.059     (0)  
Fe(2)         2.446e-12
   Fe+2            1.772e-12   3.991e-13   -11.751   -12.399    -0.648    -19.54
   FeSO4           3.093e-13   3.540e-13   -12.510   -12.451     0.059     -0.31
   FeCl+           2.680e-13   1.951e-13   -12.572   -12.710    -0.138     (0)  
   FeHCO3+         9.579e-14   6.974e-14   -13.019   -13.156    -0.138     (0)  
   FeOH+           1.864e-16   1.232e-16   -15.729   -15.909    -0.180     (0)  
   FeCO3           1.737e-16   1.988e-16   -15.760   -15.702     0.059     (0)  
   FeHSO4+         2.141e-17   1.559e-17   -16.669   -16.807    -0.138     (0)  
   Fe(OH)2         1.186e-21   1.358e-21   -20.926   -20.867     0.059     (0)  
   Fe(OH)3-        1.668e-26   1.102e-26   -25.778   -25.958    -0.180     (0)  
   Fe(HS)2         0.000e+00   0.000e+00  -225.763  -225.704     0.059     (0)  
   Fe(HS)3-        0.000e+00   0.000e+00  -334.657  -334.795    -0.138     (0)  
Fe(3)         3.706e-08
   Fe(OH)2+        3.490e-08   2.347e-08    -7.457    -7.629    -0.172     (0)  
   Fe(OH)3         1.258e-09   1.439e-09    -8.900    -8.842     0.059     (0)  
   FeOH+2          8.907e-10   1.697e-10    -9.050    -9.770    -0.720     (0)  
   FeCl+2          4.528e-12   8.626e-13   -11.344   -12.064    -0.720     (0)  
   FeSO4+          3.511e-12   2.320e-12   -11.455   -11.635    -0.180     (0)  
   FeCl2+          9.945e-13   6.571e-13   -12.002   -12.182    -0.180     (0)  
   Fe(OH)4-        8.591e-13   5.778e-13   -12.066   -12.238    -0.172     (0)  
   Fe+3            5.102e-13   3.881e-14   -12.292   -13.411    -1.119     (0)  
   Fe(SO4)2-       2.496e-13   1.817e-13   -12.603   -12.741    -0.138     (0)  
   FeCl3           2.034e-14   2.328e-14   -13.692   -13.633     0.059     (0)  
   FeHSO4+2        1.355e-16   3.808e-17   -15.868   -16.419    -0.551     (0)  
   Fe2(OH)2+4      4.789e-17   2.988e-19   -16.320   -18.525    -2.205     (0)  
   Fe3(OH)4+5      4.861e-22   1.744e-25   -21.313   -24.758    -3.445     (0)  
H(0)          3.769e-37
   H2              1.884e-37   2.157e-37   -36.725   -36.666     0.059     28.59
K             1.056e-02
   K+              1.024e-02   6.349e-03    -1.990    -2.197    -0.208     10.21
   KSO4-           3.246e-04   2.183e-04    -3.489    -3.661    -0.172     35.21
Na            4.848e-01
   Na+             4.751e-01   3.343e-01    -0.323    -0.476    -0.153      0.27
   NaSO4-          9.435e-03   6.345e-03    -2.025    -2.198    -0.172     19.85
   NaHCO3          2.519e-04   2.883e-04    -3.599    -3.540     0.059      1.80
   NaCO3-          5.682e-07   4.137e-07    -6.246    -6.383    -0.138      3.97
   NaOH            2.785e-19   3.187e-19   -18.555   -18.497     0.059     (0)  
O(0)          4.190e-12
   O2              2.095e-12   2.398e-12   -11.679   -11.620     0.059     31.92
S(-2)         0.000e+00
   H2S             0.000e+00   0.000e+00  -109.748  -109.689     0.059     37.24
   HS-             0.000e+00   0.000e+00  -110.911  -111.128    -0.216     22.01
   S-2             0.000e+00   0.000e+00  -117.390  -118.110    -0.720     (0)  
   Fe(HS)2         0.000e+00   0.000e+00  -225.763  -225.704     0.059     (0)  
   Fe(HS)3-        0.000e+00   0.000e+00  -334.657  -334.795    -0.138     (0)  
S(6)          2.922e-02
   SO4-2           1.813e-02   3.272e-03    -1.742    -2.485    -0.744     19.57
   NaSO4-          9.435e-03   6.345e-03    -2.025    -2.198    -0.172     19.85
   CaSO4           1.328e-03   1.520e-03    -2.877    -2.818     0.059      8.19
   KSO4-           3.246e-04   2.183e-04    -3.489    -3.661    -0.172     35.21
   HSO4-           4.462e-06   3.249e-06    -5.350    -5.488    -0.138     42.06
   CaHSO4+         1.178e-07   8.580e-08    -6.929    -7.067    -0.138     (0)  
   FeSO4+          3.511e-12   2.320e-12   -11.455   -11.635    -0.180     (0)  
   FeSO4           3.093e-13   3.540e-13   -12.510   -12.451     0.059     -0.31
   Fe(SO4)2-       2.496e-13   1.817e-13   -12.603   -12.741    -0.138     (0)  
   FeHSO4+2        1.355e-16   3.808e-17   -15.868   -16.419    -0.551     (0)  
   FeHSO4+         2.141e-17   1.559e-17   -16.669   -16.807    -0.138     (0)  

------------------------------Saturation indices-------------------------------

  Phase               SI** log IAP   log K(323 K,   1 atm)

  Anhydrite        -0.57     -5.14   -4.58  CaSO4
  Aragonite        -1.81    -10.34   -8.54  CaCO3
  Calcite          -1.68    -10.34   -8.66  CaCO3
  CH4(g)         -111.25   -114.21   -2.96  CH4
  CO2(g)           -0.00     -1.71   -1.71  CO2	 Pressure   1.0 atm, phi 0.996
  Fe(OH)3(a)       -2.58      2.31    4.89  Fe(OH)3
  FeS(ppt)       -114.36   -118.28   -3.92  FeS
  Goethite          4.14      2.32   -1.82  FeOOH
  Gypsum           -0.54     -5.16   -4.62  CaSO4:2H2O
  H2(g)           -33.53    -36.67   -3.14  H2
  H2O(g)           -0.92     -0.01    0.92  H2O
  H2S(g)         -108.43   -116.38   -7.95  H2S
  Halite           -2.52     -0.93    1.59  NaCl
  Hematite         10.41      4.65   -5.76  Fe2O3
  Jarosite-K       -4.97    -15.96  -10.98  KFe3(SO4)2(OH)6
  Mackinawite    -113.63   -118.28   -4.65  FeS
  Melanterite     -12.99    -14.94   -1.95  FeSO4:7H2O
  O2(g)            -8.59    -11.62   -3.03  O2
  Pyrite         -183.40   -201.24  -17.84  FeS2
  Siderite         -9.05    -20.08  -11.03  FeCO3
  Sulfur          -80.62    -76.27    4.34  S
  Sylvite          -3.66     -2.65    1.02  KCl

**For a gas, SI = log10(fugacity). Fugacity = pressure * phi / 1 atm.
  For ideal gases, phi = 1.

------------------
End of simulation.
------------------

------------------------------------
Reading input data for simulation 4.
------------------------------------

	GAS_PHASE 3
	    fixed_pressure
	    pressure 1
	    volume 1
	    temperature 80
	    CO2(g)    1
	USE solution 3
	END
-----------------------------------------
Beginning of batch-reaction calculations.
-----------------------------------------

Reaction step 1.

Using solution 3.	
Using gas phase 3.	

-----------------------------------Gas phase-----------------------------------

Total pressure:  1.00      atmospheres          (Peng-Robinson calculation)
    Gas volume:   6.46e-01 liters
  Molar volume:   2.89e+01 liters/mole
   P * Vm / RT:  0.99676  (Compressibility Factor Z) 

                                                        Moles in gas
                                            ----------------------------------
Component         log P           P    phi     Initial       Final       Delta

CO2(g)             0.00   1.000e+00  0.997   3.462e-02   2.238e-02  -1.224e-02

-----------------------------Solution composition------------------------------

	Elements           Molality       Moles

	C                 1.396e-02   1.428e-02
	Ca                1.065e-02   1.089e-02
	Cl                5.650e-01   5.780e-01
	Fe                3.706e-08   3.792e-08
	K                 1.056e-02   1.081e-02
	Na                4.848e-01   4.959e-01
	S                 2.922e-02   2.989e-02

----------------------------Description of solution----------------------------

                                       pH  =   5.483      Charge balance
                                       pe  =  11.188      Adjusted to redox equilibrium
      Specific Conductance (µS/cm,  80°C)  = 114166
                          Density (g/cm³)  =   0.99486
                               Volume (L)  =   1.06476
                        Activity of water  =   0.981
                 Ionic strength (mol/kgw)  =   5.855e-01
                       Mass of water (kg)  =   1.023e+00
                 Total alkalinity (eq/kg)  =   2.930e-03
                       Total CO2 (mol/kg)  =   1.396e-02
                         Temperature (°C)  =  80.00
                  Electrical balance (eq)  =  -1.122e-01
 Percent error, 100*(Cat-|An|)/(Cat+|An|)  =  -9.82
                               Iterations  =  10
                                  Total H  = 1.135669e+02
                                  Total O  = 5.693324e+01

----------------------------Distribution of species----------------------------

                                               Log       Log       Log    mole V
   Species          Molality    Activity  Molality  Activity     Gamma   cm³/mol

   H+              4.449e-06   3.288e-06    -5.352    -5.483    -0.131      0.00
   OH-             1.304e-07   7.692e-08    -6.885    -7.114    -0.229     -2.84
   H2O             5.551e+01   9.813e-01     1.744    -0.008     0.000     18.54
C(-4)         0.000e+00
   CH4             0.000e+00   0.000e+00  -117.671  -117.613     0.059     39.45
C(4)          1.396e-02
   CO2             1.100e-02   1.259e-02    -1.959    -1.900     0.059     37.40
   HCO3-           2.623e-03   1.724e-03    -2.581    -2.763    -0.182     27.60
   NaHCO3          2.117e-04   2.423e-04    -3.674    -3.616     0.059      1.80
   CaHCO3+         9.645e-05   6.503e-05    -4.016    -4.187    -0.171     11.02
   (CO2)2          9.607e-06   1.099e-05    -5.017    -4.959     0.059     74.80
   NaCO3-          3.470e-06   2.472e-06    -5.460    -5.607    -0.147      3.66
   CaCO3           5.780e-07   6.615e-07    -6.238    -6.179     0.059    -14.47
   CO3-2           2.105e-07   3.926e-08    -6.677    -7.406    -0.729     -5.67
   FeHCO3+         1.570e-15   1.119e-15   -14.804   -14.951    -0.147     (0)  
   FeCO3           5.341e-18   6.111e-18   -17.272   -17.214     0.059     (0)  
Ca            1.065e-02
   Ca+2            9.265e-03   2.002e-03    -2.033    -2.699    -0.665    -16.75
   CaSO4           1.285e-03   1.470e-03    -2.891    -2.833     0.059      8.66
   CaHCO3+         9.645e-05   6.503e-05    -4.016    -4.187    -0.171     11.02
   CaCO3           5.780e-07   6.615e-07    -6.238    -6.179     0.059    -14.47
   CaHSO4+         1.291e-07   9.194e-08    -6.889    -7.037    -0.147     (0)  
   CaOH+           1.391e-10   9.912e-11    -9.857   -10.004    -0.147     (0)  
Cl            5.650e-01
   Cl-             5.650e-01   3.441e-01    -0.248    -0.463    -0.215     18.44
   FeCl+2          3.186e-13   5.510e-14   -12.497   -13.259    -0.762     (0)  
   FeCl2+          3.013e-14   1.943e-14   -13.521   -13.712    -0.191     (0)  
   FeCl+           4.326e-15   3.082e-15   -14.364   -14.511    -0.147     (0)  
   FeCl3           5.842e-16   6.685e-16   -15.233   -15.175     0.059     (0)  
Fe(2)         4.421e-14
   Fe+2            3.140e-14   6.489e-15   -13.503   -14.188    -0.685    -18.59
   FeSO4           6.873e-15   7.865e-15   -14.163   -14.104     0.059    -13.27
   FeCl+           4.326e-15   3.082e-15   -14.364   -14.511    -0.147     (0)  
   FeHCO3+         1.570e-15   1.119e-15   -14.804   -14.951    -0.147     (0)  
   FeOH+           3.050e-17   1.967e-17   -16.516   -16.706    -0.191     (0)  
   FeCO3           5.341e-18   6.111e-18   -17.272   -17.214     0.059     (0)  
   FeHSO4+         4.184e-19   2.981e-19   -18.378   -18.526    -0.147     (0)  
   Fe(OH)2         2.478e-21   2.836e-21   -20.606   -20.547     0.059     (0)  
   Fe(OH)3-        7.692e-26   4.960e-26   -25.114   -25.304    -0.191     (0)  
   Fe(HS)2         0.000e+00   0.000e+00  -234.435  -234.376     0.059     (0)  
   Fe(HS)3-        0.000e+00   0.000e+00  -346.761  -346.908    -0.147     (0)  
Fe(3)         3.706e-08
   Fe(OH)2+        3.157e-08   2.075e-08    -7.501    -7.683    -0.182     (0)  
   Fe(OH)3         5.274e-09   6.036e-09    -8.278    -8.219     0.059     (0)  
   FeOH+2          2.086e-10   3.608e-11    -9.681   -10.443    -0.762     (0)  
   Fe(OH)4-        1.616e-11   1.062e-11   -10.792   -10.974    -0.182     (0)  
   FeCl+2          3.186e-13   5.510e-14   -12.497   -13.259    -0.762     (0)  
   FeSO4+          1.686e-13   1.087e-13   -12.773   -12.964    -0.191     (0)  
   FeCl2+          3.013e-14   1.943e-14   -13.521   -13.712    -0.191     (0)  
   Fe+3            1.848e-14   1.217e-15   -13.733   -14.915    -1.182     (0)  
   Fe(SO4)2-       1.168e-14   8.318e-15   -13.933   -14.080    -0.147     (0)  
   FeCl3           5.842e-16   6.685e-16   -15.233   -15.175     0.059     (0)  
   FeHSO4+2        5.450e-18   1.404e-18   -17.264   -17.853    -0.589     (0)  
   Fe2(OH)2+4      1.168e-18   5.143e-21   -17.933   -20.289    -2.356     (0)  
   Fe3(OH)4+5      1.476e-24   3.072e-28   -23.831   -27.513    -3.682     (0)  
H(0)          3.544e-37
   H2              1.772e-37   2.028e-37   -36.751   -36.693     0.059     28.57
K             1.056e-02
   K+              1.014e-02   6.100e-03    -1.994    -2.215    -0.221     10.66
   KSO4-           4.276e-04   2.810e-04    -3.369    -3.551    -0.182     35.05
Na            4.848e-01
   Na+             4.748e-01   3.251e-01    -0.323    -0.488    -0.165      0.84
   NaSO4-          9.704e-03   6.378e-03    -2.013    -2.195    -0.182     17.37
   NaHCO3          2.117e-04   2.423e-04    -3.674    -3.616     0.059      1.80
   NaCO3-          3.470e-06   2.472e-06    -5.460    -5.607    -0.147      3.66
   NaOH            2.185e-18   2.501e-18   -17.661   -17.602     0.059     (0)  
O(0)          1.650e-04
   O2              8.248e-05   9.438e-05    -4.084    -4.025     0.059     33.17
S(-2)         0.000e+00
   H2S             0.000e+00   0.000e+00  -113.570  -113.511     0.059     37.28
   HS-             0.000e+00   0.000e+00  -114.340  -114.569    -0.229     21.86
   S-2             0.000e+00   0.000e+00  -119.861  -120.623    -0.762     (0)  
   Fe(HS)2         0.000e+00   0.000e+00  -234.435  -234.376     0.059     (0)  
   Fe(HS)3-        0.000e+00   0.000e+00  -346.761  -346.908    -0.147     (0)  
S(6)          2.922e-02
   SO4-2           1.780e-02   2.916e-03    -1.750    -2.535    -0.786     19.69
   NaSO4-          9.704e-03   6.378e-03    -2.013    -2.195    -0.182     17.37
   CaSO4           1.285e-03   1.470e-03    -2.891    -2.833     0.059      8.66
   KSO4-           4.276e-04   2.810e-04    -3.369    -3.551    -0.182     35.05
   HSO4-           5.363e-06   3.821e-06    -5.271    -5.418    -0.147     42.34
   CaHSO4+         1.291e-07   9.194e-08    -6.889    -7.037    -0.147     (0)  
   FeSO4+          1.686e-13   1.087e-13   -12.773   -12.964    -0.191     (0)  
   Fe(SO4)2-       1.168e-14   8.318e-15   -13.933   -14.080    -0.147     (0)  
   FeSO4           6.873e-15   7.865e-15   -14.163   -14.104     0.059    -13.27
   FeHSO4+2        5.450e-18   1.404e-18   -17.264   -17.853    -0.589     (0)  
   FeHSO4+         4.184e-19   2.981e-19   -18.378   -18.526    -0.147     (0)  

------------------------------Saturation indices-------------------------------

  Phase               SI** log IAP   log K(353 K,   1 atm)

  Anhydrite        -0.26     -5.23   -4.98  CaSO4
  Aragonite        -1.23    -10.10   -8.88  CaCO3
  Calcite          -1.12    -10.10   -8.99  CaCO3
  CH4(g)         -114.60   -117.61   -3.02  CH4
  CO2(g)           -0.00     -1.90   -1.90  CO2	 Pressure   1.0 atm, phi 0.997
  Fe(OH)3(a)       -3.38      1.51    4.89  Fe(OH)3
  FeS(ppt)       -119.36   -123.27   -3.92  FeS
  Goethite          4.17      1.52   -2.65  FeOOH
  Gypsum           -0.51     -5.25   -4.74  CaSO4:2H2O
  H2(g)           -33.56    -36.69   -3.13  H2
  H2O(g)           -0.34     -0.01    0.33  H2O
  H2S(g)         -112.12   -120.05   -7.93  H2S
  Halite           -2.56     -0.95    1.61  NaCl
  Hematite         10.57      3.04   -7.53  Fe2O3
  Jarosite-K       -6.40    -19.18  -12.78  KFe3(SO4)2(OH)6
  Mackinawite    -118.63   -123.27   -4.65  FeS
  Melanterite     -15.04    -16.78   -1.74  FeSO4:7H2O
  O2(g)            -0.92     -4.03   -3.11  O2
  Pyrite         -192.80   -209.98  -17.19  FeS2
  Siderite        -10.42    -21.59  -11.17  FeCO3
  Sulfur          -83.97    -80.17    3.80  S
  Sylvite          -3.81     -2.68    1.13  KCl

**For a gas, SI = log10(fugacity). Fugacity = pressure * phi / 1 atm.
  For ideal gases, phi = 1.

------------------
End of simulation.
------------------

------------------------------------
Reading input data for simulation 5.
------------------------------------

	GAS_PHASE 4
	    fixed_pressure
	    pressure 5
	    volume 1
	    temperature 25
	    CO2(g)    5
	USE solution 1
	END
-----------------------------------------
Beginning of batch-reaction calculations.
-----------------------------------------

Reaction step 1.

Using solution 1.	
Using gas phase 4.	

-----------------------------------Gas phase-----------------------------------

Total pressure:  5.00      atmospheres          (Peng-Robinson calculation)
    Gas volume:   2.95e-01 liters
  Molar volume:   4.76e+00 liters/mole
   P * Vm / RT:  0.97193  (Compressibility Factor Z) 

                                                        Moles in gas
                                            ----------------------------------
Component         log P           P    phi     Initial       Final       Delta

CO2(g)             0.70   5.000e+00  0.973   2.103e-01   6.209e-02  -1.482e-01

-----------------------------Solution composition------------------------------

	Elements           Molality       Moles

	C                 1.476e-01   1.510e-01
	Ca                1.065e-02   1.089e-02
	Cl                5.650e-01   5.780e-01
	Fe                3.706e-08   3.792e-08
	K                 1.056e-02   1.081e-02
	Na                4.848e-01   4.959e-01
	S                 2.922e-02   2.989e-02

----------------------------Description of solution----------------------------

                                       pH  =   4.396      Charge balance
                                       pe  =  14.173      Adjusted to redox equilibrium
      Specific Conductance (µS/cm,  25°C)  = 51362
                          Density (g/cm³)  =   1.02232
                               Volume (L)  =   1.04206
                        Activity of water  =   0.979
                 Ionic strength (mol/kgw)  =   5.872e-01
                       Mass of water (kg)  =   1.023e+00
                 Total alkalinity (eq/kg)  =   2.930e-03
                       Total CO2 (mol/kg)  =   1.476e-01
                         Temperature (°C)  =  25.00
                           Pressure (atm)  =  5.00
                  Electrical balance (eq)  =  -1.122e-01
 Percent error, 100*(Cat-|An|)/(Cat+|An|)  =  -9.81
                               Iterations  =  13
                                  Total H  = 1.135683e+02
                                  Total O  = 5.720720e+01

----------------------------Distribution of species----------------------------

                                               Log       Log       Log    mole V
   Species          Molality    Activity  Molality  Activity     Gamma   cm³/mol

   H+              5.288e-05   4.014e-05    -4.277    -4.396    -0.120      0.00
   OH-             3.996e-10   2.477e-10    -9.398    -9.606    -0.208     -2.76
   H2O             5.551e+01   9.790e-01     1.744    -0.009     0.000     18.07
C(-4)         0.000e+00
   CH4             0.000e+00   0.000e+00  -124.991  -124.932     0.059     35.46
C(4)          1.476e-01
   CO2             1.437e-01   1.645e-01    -0.842    -0.784     0.059     34.43
   HCO3-           2.624e-03   1.792e-03    -2.581    -2.747    -0.166     26.73
   (CO2)2          4.341e-04   4.969e-04    -3.362    -3.304     0.059     68.86
   NaHCO3          3.012e-04   3.448e-04    -3.521    -3.462     0.059      1.80
   CaHCO3+         7.695e-05   5.377e-05    -4.114    -4.269    -0.156      9.96
   NaCO3-          1.805e-08   1.334e-08    -7.744    -7.875    -0.131      2.46
   CO3-2           9.670e-09   2.103e-09    -8.015    -8.677    -0.662     -2.19
   CaCO3           7.254e-09   8.304e-09    -8.139    -8.081     0.059    -14.57
   FeHCO3+         2.260e-13   1.670e-13   -12.646   -12.777    -0.131     (0)  
   FeCO3           4.088e-17   4.680e-17   -16.389   -16.330     0.059     (0)  
Ca            1.065e-02
   Ca+2            9.258e-03   2.352e-03    -2.033    -2.629    -0.595    -16.74
   CaSO4           1.311e-03   1.501e-03    -2.882    -2.824     0.059      7.51
   CaHCO3+         7.695e-05   5.377e-05    -4.114    -4.269    -0.156      9.96
   CaHSO4+         5.367e-07   3.966e-07    -6.270    -6.402    -0.131     (0)  
   CaCO3           7.254e-09   8.304e-09    -8.139    -8.081     0.059    -14.57
   CaOH+           1.288e-11   9.520e-12   -10.890   -11.021    -0.131     (0)  
Cl            5.650e-01
   Cl-             5.650e-01   3.613e-01    -0.248    -0.442    -0.194     18.74
   FeCl+2          7.104e-10   1.444e-10    -9.148    -9.841    -0.692     (0)  
   FeCl2+          3.480e-10   2.337e-10    -9.458    -9.631    -0.173     (0)  
   FeCl3           7.397e-12   8.468e-12   -11.131   -11.072     0.059     (0)  
   FeCl+           6.280e-13   4.641e-13   -12.202   -12.333    -0.131     (0)  
Fe(2)         5.276e-12
   Fe+2            3.904e-12   9.309e-13   -11.408   -12.031    -0.623    -20.76
   FeCl+           6.280e-13   4.641e-13   -12.202   -12.333    -0.131     (0)  
   FeSO4           5.177e-13   5.927e-13   -12.286   -12.227     0.059     18.97
   FeHCO3+         2.260e-13   1.670e-13   -12.646   -12.777    -0.131     (0)  
   FeHSO4+         2.123e-16   1.569e-16   -15.673   -15.804    -0.131     (0)  
   FeCO3           4.088e-17   4.680e-17   -16.389   -16.330     0.059     (0)  
   FeOH+           1.069e-17   7.176e-18   -16.971   -17.144    -0.173     (0)  
   Fe(OH)2         1.305e-24   1.494e-24   -23.884   -23.826     0.059     (0)  
   Fe(OH)3-        2.022e-30   1.357e-30   -29.694   -29.867    -0.173     (0)  
   Fe(HS)2         0.000e+00   0.000e+00  -246.565  -246.507     0.059     (0)  
   Fe(HS)3-        0.000e+00   0.000e+00  -366.050  -366.182    -0.131     (0)  
Fe(3)         3.706e-08
   Fe(OH)2+        2.471e-08   1.687e-08    -7.607    -7.773    -0.166     (0)  
   FeOH+2          1.025e-08   2.083e-09    -7.989    -8.681    -0.692     (0)  
   FeSO4+          7.763e-10   5.213e-10    -9.110    -9.283    -0.173     (0)  
   FeCl+2          7.104e-10   1.444e-10    -9.148    -9.841    -0.692     (0)  
   FeCl2+          3.480e-10   2.337e-10    -9.458    -9.631    -0.173     (0)  
   Fe+3            1.575e-10   1.319e-11    -9.803   -10.880    -1.077     (0)  
   Fe(SO4)2-       5.561e-11   4.109e-11   -10.255   -10.386    -0.131     (0)  
   Fe(OH)3         4.644e-11   5.316e-11   -10.333   -10.274     0.059     (0)  
   FeCl3           7.397e-12   8.468e-12   -11.131   -11.072     0.059     (0)  
   FeHSO4+2        1.879e-13   5.603e-14   -12.726   -13.252    -0.526     (0)  
   Fe2(OH)2+4      1.479e-14   1.168e-16   -13.830   -15.933    -2.102     (0)  
   Fe(OH)4-        1.736e-15   1.186e-15   -14.760   -14.926    -0.166     (0)  
   Fe3(OH)4+5      7.936e-19   4.118e-22   -18.100   -21.385    -3.285     (0)  
H(0)          0.000e+00
   H2              0.000e+00   0.000e+00   -40.349   -40.291     0.059     28.60
K             1.056e-02
   K+              1.032e-02   6.529e-03    -1.986    -2.185    -0.199      9.63
   KSO4-           2.411e-04   1.646e-04    -3.618    -3.783    -0.166     34.79
Na            4.848e-01
   Na+             4.755e-01   3.408e-01    -0.323    -0.467    -0.145     -0.55
   NaSO4-          8.982e-03   6.134e-03    -2.047    -2.212    -0.166     20.64
   NaHCO3          3.012e-04   3.448e-04    -3.521    -3.462     0.059      1.80
   NaCO3-          1.805e-08   1.334e-08    -7.744    -7.875    -0.131      2.46
   NaOH            7.369e-21   8.436e-21   -20.133   -20.074     0.059     (0)  
O(0)          2.638e-12
   O2              1.319e-12   1.510e-12   -11.880   -11.821     0.059     30.40
S(-2)         0.000e+00
   H2S             0.000e+00   0.000e+00  -119.228  -119.169     0.059     37.16
   HS-             0.000e+00   0.000e+00  -121.506  -121.714    -0.208     21.30
   S-2             0.000e+00   0.000e+00  -129.542  -130.234    -0.692     (0)  
   Fe(HS)2         0.000e+00   0.000e+00  -246.565  -246.507     0.059     (0)  
   Fe(HS)3-        0.000e+00   0.000e+00  -366.050  -366.182    -0.131     (0)  
S(6)          2.922e-02
   SO4-2           1.867e-02   3.593e-03    -1.729    -2.444    -0.716     17.26
   NaSO4-          8.982e-03   6.134e-03    -2.047    -2.212    -0.166     20.64
   CaSO4           1.311e-03   1.501e-03    -2.882    -2.824     0.059      7.51
   KSO4-           2.411e-04   1.646e-04    -3.618    -3.783    -0.166     34.79
   HSO4-           1.891e-05   1.397e-05    -4.723    -4.855    -0.131     40.91
   CaHSO4+         5.367e-07   3.966e-07    -6.270    -6.402    -0.131     (0)  
   FeSO4+          7.763e-10   5.213e-10    -9.110    -9.283    -0.173     (0)  
   Fe(SO4)2-       5.561e-11   4.109e-11   -10.255   -10.386    -0.131     (0)  
   FeSO4           5.177e-13   5.927e-13   -12.286   -12.227     0.059     18.97
   FeHSO4+2        1.879e-13   5.603e-14   -12.726   -13.252    -0.526     (0)  
   FeHSO4+         2.123e-16   1.569e-16   -15.673   -15.804    -0.131     (0)  

------------------------------Saturation indices-------------------------------

  Phase               SI** log IAP   log K(298 K,   5 atm)

  Anhydrite        -0.80     -5.07   -4.27  CaSO4
  Aragonite        -2.97    -11.31   -8.33  CaCO3
  Calcite          -2.83    -11.31   -8.48  CaCO3
  CH4(g)         -122.13   -124.93   -2.80  CH4
  CO2(g)            0.69     -0.78   -1.47  CO2	 Pressure   5.0 atm, phi 0.973
  Fe(OH)3(a)       -2.61      2.28    4.89  Fe(OH)3
  FeS(ppt)       -125.43   -129.35   -3.92  FeS
  Goethite          3.29      2.29   -1.00  FeOOH
  Gypsum           -0.51     -5.09   -4.58  CaSO4:2H2O
  H2(g)           -37.19    -40.29   -3.10  H2
  H2O(g)           -1.51     -0.01    1.50  H2O
  H2S(g)         -118.12   -126.11   -7.99  H2S
  Halite           -2.48     -0.91    1.57  NaCl
  Hematite          8.60      4.59   -4.01  Fe2O3
  Jarosite-K       -4.17    -13.39   -9.22  KFe3(SO4)2(OH)6
  Mackinawite    -124.70   -129.35   -4.65  FeS
  Melanterite     -12.32    -14.54   -2.22  FeSO4:7H2O
  O2(g)            -8.93    -11.82   -2.89  O2
  Pyrite         -199.84   -218.32  -18.48  FeS2
  Siderite         -9.82    -20.71  -10.89  FeCO3
  Sulfur          -86.91    -82.03    4.88  S
  Sylvite          -3.53     -2.63    0.90  KCl

**For a gas, SI = log10(fugacity). Fugacity = pressure * phi / 1 atm.
  For ideal gases, phi = 1.

------------------
End of simulation.
------------------

------------------------------------
Reading input data for simulation 6.
------------------------------------

	GAS_PHASE 5
	    fixed_pressure
	    pressure 5
	    volume 1
	    temperature 50
	    CO2(g)    5
	USE solution 2
	END
-----------------------------------------
Beginning of batch-reaction calculations.
-----------------------------------------

Reaction step 1.

Using solution 2.	
Using gas phase 5.	

-----------------------------------Gas phase-----------------------------------

Total pressure:  5.00      atmospheres          (Peng-Robinson calculation)
    Gas volume:   5.55e-01 liters
  Molar volume:   5.19e+00 liters/mole
   P * Vm / RT:  0.97824  (Compressibility Factor Z) 

                                                        Moles in gas
                                            ----------------------------------
Component         log P           P    phi     Initial       Final       Delta

CO2(g)             0.70   5.000e+00  0.979   1.927e-01   1.069e-01  -8.582e-02

-----------------------------Solution composition------------------------------

	Elements           Molality       Moles

	C                 8.633e-02   8.831e-02
	Ca                1.065e-02   1.089e-02
	Cl                5.650e-01   5.780e-01
	Fe                3.706e-08   3.792e-08
	K                 1.056e-02   1.081e-02
	Na                4.848e-01   4.959e-01
	S                 2.922e-02   2.989e-02

----------------------------Description of solution----------------------------

                                       pH  =   4.566      Charge balance
                                       pe  =  12.209      Adjusted to redox equilibrium
      Specific Conductance (µS/cm,  50°C)  = 78926
                          Density (g/cm³)  =   1.01196
                               Volume (L)  =   1.04999
                        Activity of water  =   0.980
                 Ionic strength (mol/kgw)  =   5.861e-01
                       Mass of water (kg)  =   1.023e+00
                 Total alkalinity (eq/kg)  =   2.930e-03
                       Total CO2 (mol/kg)  =   8.633e-02
                         Temperature (°C)  =  50.00
                           Pressure (atm)  =  5.00
                  Electrical balance (eq)  =  -1.122e-01
 Percent error, 100*(Cat-|An|)/(Cat+|An|)  =  -9.82
                               Iterations  =  10
                                  Total H  = 1.135677e+02
                                  Total O  = 5.708154e+01

----------------------------Distribution of species----------------------------

                                               Log       Log       Log    mole V
   Species          Molality    Activity  Molality  Activity     Gamma   cm³/mol

   H+              3.619e-05   2.718e-05    -4.441    -4.566    -0.124      0.00
   OH-             3.258e-09   1.980e-09    -8.487    -8.703    -0.216     -2.29
   H2O             5.551e+01   9.800e-01     1.744    -0.009     0.000     18.23
C(-4)         0.000e+00
   CH4             0.000e+00   0.000e+00  -114.113  -114.055     0.059     37.33
C(4)          8.633e-02
   CO2             8.275e-02   9.471e-02    -1.082    -1.024     0.059     35.66
   HCO3-           2.640e-03   1.775e-03    -2.578    -2.751    -0.172     27.66
   (CO2)2          2.942e-04   3.367e-04    -3.531    -3.473     0.059     71.31
   NaHCO3          2.570e-04   2.941e-04    -3.590    -3.532     0.059      1.80
   CaHCO3+         9.130e-05   6.290e-05    -4.040    -4.201    -0.162     10.65
   NaCO3-          1.201e-07   8.742e-08    -6.921    -7.058    -0.138      4.00
   CaCO3           2.747e-08   3.144e-08    -7.561    -7.503     0.059    -14.51
   CO3-2           2.146e-08   4.391e-09    -7.668    -8.357    -0.689     -2.21
   FeHCO3+         3.768e-13   2.744e-13   -12.424   -12.562    -0.138     (0)  
   FeCO3           1.416e-16   1.621e-16   -15.849   -15.790     0.059     (0)  
Ca            1.065e-02
   Ca+2            9.228e-03   2.197e-03    -2.035    -2.658    -0.623    -16.47
   CaSO4           1.327e-03   1.518e-03    -2.877    -2.819     0.059      8.20
   CaHCO3+         9.130e-05   6.290e-05    -4.040    -4.201    -0.162     10.65
   CaHSO4+         5.688e-07   4.141e-07    -6.245    -6.383    -0.138     (0)  
   CaCO3           2.747e-08   3.144e-08    -7.561    -7.503     0.059    -14.51
   CaOH+           1.806e-11   1.315e-11   -10.743   -10.881    -0.138     (0)  
Cl            5.650e-01
   Cl-             5.650e-01   3.543e-01    -0.248    -0.451    -0.203     19.04
   FeCl+2          9.839e-11   1.875e-11   -10.007   -10.727    -0.720     (0)  
   FeCl2+          2.168e-11   1.432e-11   -10.664   -10.844    -0.180     (0)  
   FeCl+           1.037e-12   7.548e-13   -11.984   -12.122    -0.138     (0)  
   FeCl3           4.447e-13   5.090e-13   -12.352   -12.293     0.059     (0)  
Fe(2)         9.463e-12
   Fe+2            6.853e-12   1.543e-12   -11.164   -11.812    -0.647    -19.51
   FeSO4           1.196e-12   1.369e-12   -11.922   -11.864     0.059     -0.31
   FeCl+           1.037e-12   7.548e-13   -11.984   -12.122    -0.138     (0)  
   FeHCO3+         3.768e-13   2.744e-13   -12.424   -12.562    -0.138     (0)  
   FeHSO4+         3.993e-16   2.908e-16   -15.399   -15.536    -0.138     (0)  
   FeOH+           1.492e-16   9.861e-17   -15.826   -16.006    -0.180     (0)  
   FeCO3           1.416e-16   1.621e-16   -15.849   -15.790     0.059     (0)  
   Fe(OH)2         1.971e-22   2.256e-22   -21.705   -21.647     0.059     (0)  
   Fe(OH)3-        5.753e-28   3.801e-28   -27.240   -27.420    -0.180     (0)  
   Fe(HS)2         0.000e+00   0.000e+00  -224.872  -224.814     0.059     (0)  
   Fe(HS)3-        0.000e+00   0.000e+00  -333.614  -333.752    -0.138     (0)  
Fe(3)         3.706e-08
   Fe(OH)2+        3.259e-08   2.192e-08    -7.487    -7.659    -0.172     (0)  
   FeOH+2          4.006e-09   7.634e-10    -8.397    -9.117    -0.720     (0)  
   Fe(OH)3         2.438e-10   2.790e-10    -9.613    -9.554     0.059     (0)  
   FeCl+2          9.839e-11   1.875e-11   -10.007   -10.727    -0.720     (0)  
   FeSO4+          7.629e-11   5.041e-11   -10.118   -10.298    -0.180     (0)  
   FeCl2+          2.168e-11   1.432e-11   -10.664   -10.844    -0.180     (0)  
   Fe+3            1.105e-11   8.411e-13   -10.957   -12.075    -1.119     (0)  
   Fe(SO4)2-       5.436e-12   3.959e-12   -11.265   -11.402    -0.138     (0)  
   FeCl3           4.447e-13   5.090e-13   -12.352   -12.293     0.059     (0)  
   Fe(OH)4-        3.457e-14   2.325e-14   -13.461   -13.634    -0.172     (0)  
   FeHSO4+2        1.420e-14   3.992e-15   -13.848   -14.399    -0.551     (0)  
   Fe2(OH)2+4      9.681e-16   6.047e-18   -15.014   -17.218    -2.204     (0)  
   Fe3(OH)4+5      9.171e-21   3.297e-24   -20.038   -23.482    -3.444     (0)  
H(0)          2.766e-37
   H2              1.383e-37   1.583e-37   -36.859   -36.801     0.059     28.59
K             1.056e-02
   K+              1.024e-02   6.349e-03    -1.990    -2.197    -0.208     10.22
   KSO4-           3.242e-04   2.180e-04    -3.489    -3.661    -0.172     35.20
Na            4.848e-01
   Na+             4.751e-01   3.343e-01    -0.323    -0.476    -0.153      0.28
   NaSO4-          9.432e-03   6.343e-03    -2.025    -2.198    -0.172     19.82
   NaHCO3          2.570e-04   2.941e-04    -3.590    -3.532     0.059      1.80
   NaCO3-          1.201e-07   8.742e-08    -6.921    -7.058    -0.138      4.00
   NaOH            5.781e-20   6.617e-20   -19.238   -19.179     0.059     (0)  
O(0)          7.699e-12
   O2              3.849e-12   4.406e-12   -11.415   -11.356     0.059     31.91
S(-2)         0.000e+00
   H2S             0.000e+00   0.000e+00  -108.915  -108.856     0.059     37.23
   HS-             0.000e+00   0.000e+00  -110.761  -110.977    -0.216     22.01
   S-2             0.000e+00   0.000e+00  -117.922  -118.642    -0.720     (0)  
   Fe(HS)2         0.000e+00   0.000e+00  -224.872  -224.814     0.059     (0)  
   Fe(HS)3-        0.000e+00   0.000e+00  -333.614  -333.752    -0.138     (0)  
S(6)          2.922e-02
   SO4-2           1.811e-02   3.271e-03    -1.742    -2.485    -0.743     19.55
   NaSO4-          9.432e-03   6.343e-03    -2.025    -2.198    -0.172     19.82
   CaSO4           1.327e-03   1.518e-03    -2.877    -2.819     0.059      8.20
   KSO4-           3.242e-04   2.180e-04    -3.489    -3.661    -0.172     35.20
   HSO4-           2.145e-05   1.562e-05    -4.669    -4.806    -0.138     42.04
   CaHSO4+         5.688e-07   4.141e-07    -6.245    -6.383    -0.138     (0)  
   FeSO4+          7.629e-11   5.041e-11   -10.118   -10.298    -0.180     (0)  
   Fe(SO4)2-       5.436e-12   3.959e-12   -11.265   -11.402    -0.138     (0)  
   FeSO4           1.196e-12   1.369e-12   -11.922   -11.864     0.059     -0.31
   FeHSO4+2        1.420e-14   3.992e-15   -13.848   -14.399    -0.551     (0)  
   FeHSO4+         3.993e-16   2.908e-16   -15.399   -15.536    -0.138     (0)  

------------------------------Saturation indices-------------------------------

  Phase               SI** log IAP   log K(323 K,   5 atm)

  Anhydrite        -0.57     -5.14   -4.57  CaSO4
  Aragonite        -2.48    -11.02   -8.53  CaCO3
  Calcite          -2.36    -11.02   -8.66  CaCO3
  CH4(g)         -111.09   -114.05   -2.96  CH4
  CO2(g)            0.69     -1.02   -1.71  CO2	 Pressure   5.0 atm, phi 0.979
  Fe(OH)3(a)       -3.29      1.60    4.89  Fe(OH)3
  FeS(ppt)       -114.31   -118.22   -3.92  FeS
  Goethite          3.43      1.60   -1.82  FeOOH
  Gypsum           -0.54     -5.16   -4.62  CaSO4:2H2O
  H2(g)           -33.66    -36.80   -3.14  H2
  H2O(g)           -0.92     -0.01    0.91  H2O
  H2S(g)         -107.59   -115.54   -7.95  H2S
  Halite           -2.52     -0.93    1.59  NaCl
  Hematite          8.98      3.22   -5.76  Fe2O3
  Jarosite-K       -5.06    -16.05  -10.99  KFe3(SO4)2(OH)6
  Mackinawite    -113.58   -118.22   -4.65  FeS
  Melanterite     -12.40    -14.36   -1.96  FeSO4:7H2O
  O2(g)            -8.32    -11.36   -3.03  O2
  Pyrite         -182.38   -200.22  -17.84  FeS2
  Siderite         -9.14    -20.17  -11.03  FeCO3
  Sulfur          -79.65    -75.31    4.34  S
[...]

                                       pH  =   4.017      Charge balance
                                       pe  =  12.822      Adjusted to redox equilibrium
      Specific Conductance (µS/cm,  50°C)  = 78940
                          Density (g/cm³)  =   1.01435
                               Volume (L)  =   1.05765
                        Activity of water  =   0.976
                 Ionic strength (mol/kgw)  =   5.861e-01
                       Mass of water (kg)  =   1.023e+00
                 Total alkalinity (eq/kg)  =   2.930e-03
                       Total CO2 (mol/kg)  =   3.147e-01
                         Temperature (°C)  =  50.00
                           Pressure (atm)  = 20.00
                  Electrical balance (eq)  =  -1.122e-01
 Percent error, 100*(Cat-|An|)/(Cat+|An|)  =  -9.82
                               Iterations  =  20
                                  Total H  = 1.135677e+02
                                  Total O  = 5.754877e+01

----------------------------Distribution of species----------------------------

                                               Log       Log       Log    mole V
   Species          Molality    Activity  Molality  Activity     Gamma   cm³/mol

   H+              1.280e-04   9.620e-05    -3.893    -4.017    -0.124      0.00
   OH-             9.272e-10   5.637e-10    -9.033    -9.249    -0.216     -2.31
   H2O             5.551e+01   9.762e-01     1.744    -0.010     0.000     18.22
C(-4)         0.000e+00
   CH4             0.000e+00   0.000e+00  -114.066  -114.008     0.059     37.34
C(4)          3.147e-01
   CO2             3.036e-01   3.475e-01    -0.518    -0.459     0.059     35.64
   (CO2)2          3.961e-03   4.534e-03    -2.402    -2.344     0.059     71.28
   HCO3-           2.766e-03   1.861e-03    -2.558    -2.730    -0.172     27.67
   NaHCO3          2.734e-04   3.129e-04    -3.563    -3.505     0.059      1.80
   CaHCO3+         9.580e-05   6.601e-05    -4.019    -4.180    -0.162     10.68
   NaCO3-          3.604e-08   2.625e-08    -7.443    -7.581    -0.138      4.13
   CaCO3           8.262e-09   9.456e-09    -8.083    -8.024     0.059    -14.41
   CO3-2           6.455e-09   1.322e-09    -8.190    -8.879    -0.689     -2.09
   FeHCO3+         9.071e-13   6.607e-13   -12.042   -12.180    -0.138     (0)  
   FeCO3           9.634e-17   1.103e-16   -16.016   -15.958     0.059     (0)  
Ca            1.065e-02
   Ca+2            9.226e-03   2.200e-03    -2.035    -2.658    -0.623    -16.37
   CaSO4           1.323e-03   1.514e-03    -2.878    -2.820     0.059      8.24
   CaHCO3+         9.580e-05   6.601e-05    -4.019    -4.180    -0.162     10.68
   CaHSO4+         2.016e-06   1.469e-06    -5.695    -5.833    -0.138     (0)  
   CaCO3           8.262e-09   9.456e-09    -8.083    -8.024     0.059    -14.41
   CaOH+           5.093e-12   3.709e-12   -11.293   -11.431    -0.138     (0)  
Cl            5.650e-01
   Cl-             5.650e-01   3.544e-01    -0.248    -0.450    -0.202     19.04
   FeCl+2          9.217e-10   1.759e-10    -9.035    -9.755    -0.719     (0)  
   FeCl2+          2.056e-10   1.359e-10    -9.687    -9.867    -0.180     (0)  
   FeCl3           4.266e-12   4.882e-12   -11.370   -11.311     0.059     (0)  
   FeCl+           2.370e-12   1.727e-12   -11.625   -11.763    -0.138     (0)  
Fe(2)         2.167e-11
   Fe+2            1.565e-11   3.530e-12   -10.805   -11.452    -0.647    -19.40
   FeSO4           2.733e-12   3.128e-12   -11.563   -11.505     0.059     -0.31
   FeCl+           2.370e-12   1.727e-12   -11.625   -11.763    -0.138     (0)  
   FeHCO3+         9.071e-13   6.607e-13   -12.042   -12.180    -0.138     (0)  
   FeHSO4+         3.228e-15   2.351e-15   -14.491   -14.629    -0.138     (0)  
   FeCO3           9.634e-17   1.103e-16   -16.016   -15.958     0.059     (0)  
   FeOH+           9.596e-17   6.342e-17   -16.018   -16.198    -0.180     (0)  
   Fe(OH)2         3.605e-23   4.126e-23   -22.443   -22.384     0.059     (0)  
   Fe(OH)3-        2.991e-29   1.977e-29   -28.524   -28.704    -0.180     (0)  
   Fe(HS)2         0.000e+00   0.000e+00  -224.457  -224.398     0.059     (0)  
   Fe(HS)3-        0.000e+00   0.000e+00  -333.169  -333.306    -0.138     (0)  
Fe(3)         3.704e-08
   Fe(OH)2+        2.444e-08   1.644e-08    -7.612    -7.784    -0.172     (0)  
   FeOH+2          1.055e-08   2.014e-09    -7.977    -8.696    -0.719     (0)  
   FeCl+2          9.217e-10   1.759e-10    -9.035    -9.755    -0.719     (0)  
   FeSO4+          7.146e-10   4.723e-10    -9.146    -9.326    -0.180     (0)  
   FeCl2+          2.056e-10   1.359e-10    -9.687    -9.867    -0.180     (0)  
   Fe+3            1.023e-10   7.802e-12    -9.990   -11.108    -1.118     (0)  
   Fe(OH)3         5.200e-11   5.951e-11   -10.284   -10.225     0.059     (0)  
   Fe(SO4)2-       5.144e-11   3.746e-11   -10.289   -10.426    -0.138     (0)  
   FeCl3           4.266e-12   4.882e-12   -11.370   -11.311     0.059     (0)  
   FeHSO4+2        4.704e-13   1.324e-13   -12.328   -12.878    -0.551     (0)  
   Fe2(OH)2+4      6.707e-15   4.207e-17   -14.173   -16.376    -2.203     (0)  
   Fe(OH)4-        2.096e-15   1.410e-15   -14.679   -14.851    -0.172     (0)  
   Fe3(OH)4+5      4.755e-20   1.720e-23   -19.323   -22.764    -3.441     (0)  
H(0)          2.027e-37
   H2              1.014e-37   1.160e-37   -36.994   -36.935     0.059     28.58
K             1.056e-02
   K+              1.024e-02   6.353e-03    -1.990    -2.197    -0.207     10.26
   KSO4-           3.230e-04   2.173e-04    -3.491    -3.663    -0.172     35.16
Na            4.848e-01
   Na+             4.751e-01   3.344e-01    -0.323    -0.476    -0.152      0.33
   NaSO4-          9.423e-03   6.340e-03    -2.026    -2.198    -0.172     19.73
   NaHCO3          2.734e-04   3.129e-04    -3.563    -3.505     0.059      1.80
   NaCO3-          3.604e-08   2.625e-08    -7.443    -7.581    -0.138      4.13
   NaOH            1.645e-20   1.882e-20   -19.784   -19.725     0.059     (0)  
O(0)          1.380e-11
   O2              6.902e-12   7.899e-12   -11.161   -11.102     0.059     31.88
S(-2)         0.000e+00
   H2S             0.000e+00   0.000e+00  -108.345  -108.286     0.059     37.20
   HS-             0.000e+00   0.000e+00  -110.736  -110.952    -0.216     22.01
   S-2             0.000e+00   0.000e+00  -118.441  -119.160    -0.719     (0)  
   Fe(HS)2         0.000e+00   0.000e+00  -224.457  -224.398     0.059     (0)  
   Fe(HS)3-        0.000e+00   0.000e+00  -333.169  -333.306    -0.138     (0)  
S(6)          2.922e-02
   SO4-2           1.807e-02   3.267e-03    -1.743    -2.486    -0.743     19.50
   NaSO4-          9.423e-03   6.340e-03    -2.026    -2.198    -0.172     19.73
   CaSO4           1.323e-03   1.514e-03    -2.878    -2.820     0.059      8.24
   KSO4-           3.230e-04   2.173e-04    -3.491    -3.663    -0.172     35.16
   HSO4-           7.485e-05   5.452e-05    -4.126    -4.263    -0.138     42.00
   CaHSO4+         2.016e-06   1.469e-06    -5.695    -5.833    -0.138     (0)  
   FeSO4+          7.146e-10   4.723e-10    -9.146    -9.326    -0.180     (0)  
   Fe(SO4)2-       5.144e-11   3.746e-11   -10.289   -10.426    -0.138     (0)  
   FeSO4           2.733e-12   3.128e-12   -11.563   -11.505     0.059     -0.31
   FeHSO4+2        4.704e-13   1.324e-13   -12.328   -12.878    -0.551     (0)  
   FeHSO4+         3.228e-15   2.351e-15   -14.491   -14.629    -0.138     (0)  

------------------------------Saturation indices-------------------------------

  Phase               SI** log IAP   log K(323 K,  20 atm)

  Anhydrite        -0.58     -5.14   -4.56  CaSO4
  Aragonite        -3.02    -11.54   -8.52  CaCO3
  Calcite          -2.89    -11.54   -8.65  CaCO3
  CH4(g)         -111.04   -114.01   -2.97  CH4
  CO2(g)            1.26     -0.46   -1.72  CO2	 Pressure  20.0 atm, phi 0.916
  Fe(OH)3(a)       -3.96      0.91    4.87  Fe(OH)3
  FeS(ppt)       -114.47   -118.39   -3.92  FeS
  Goethite          2.75      0.92   -1.83  FeOOH
  Gypsum           -0.56     -5.16   -4.61  CaSO4:2H2O
  H2(g)           -33.79    -36.94   -3.15  H2
  H2O(g)           -0.92     -0.01    0.91  H2O
  H2S(g)         -107.01   -114.97   -7.95  H2S
  Halite           -2.52     -0.93    1.59  NaCl
  Hematite          7.62      1.85   -5.76  Fe2O3
  Jarosite-K       -5.42    -16.45  -11.03  KFe3(SO4)2(OH)6
  Mackinawite    -113.74   -118.39   -4.64  FeS
  Melanterite     -12.02    -14.01   -1.99  FeSO4:7H2O
  O2(g)            -8.06    -11.10   -3.04  O2
  Pyrite         -181.84   -199.68  -17.84  FeS2
  Siderite         -9.32    -20.33  -11.01  FeCO3
  Sulfur          -78.94    -74.61    4.33  S
  Sylvite          -3.67     -2.65    1.02  KCl

**For a gas, SI = log10(fugacity). Fugacity = pressure * phi / 1 atm.
  For ideal gases, phi = 1.

------------------
End of simulation.
------------------

-------------------------------------
Reading input data for simulation 16.
-------------------------------------

	GAS_PHASE 15
	    fixed_pressure
	    pressure 20
	    volume 1
	    temperature 80
	    CO2(g)    20
	USE solution 3
	END
-----------------------------------------
Beginning of batch-reaction calculations.
-----------------------------------------

Reaction step 1.

Using solution 3.	
Using gas phase 15.	

-----------------------------------Gas phase-----------------------------------

Total pressure: 20.00      atmospheres          (Peng-Robinson calculation)
    Gas volume:   7.10e-01 liters
  Molar volume:   1.35e+00 liters/mole
   P * Vm / RT:  0.93439  (Compressibility Factor Z) 

                                                        Moles in gas
                                            ----------------------------------
Component         log P           P    phi     Initial       Final       Delta

CO2(g)             1.30   2.000e+01  0.937   7.386e-01   5.244e-01  -2.142e-01

-----------------------------Solution composition------------------------------

	Elements           Molality       Moles

	C                 2.114e-01   2.162e-01
	Ca                1.065e-02   1.089e-02
	Cl                5.650e-01   5.780e-01
	Fe                3.707e-08   3.792e-08
	K                 1.056e-02   1.081e-02
	Na                4.848e-01   4.959e-01
	S                 2.922e-02   2.989e-02

----------------------------Description of solution----------------------------

                                       pH  =   4.237      Charge balance
                                       pe  =  12.434      Adjusted to redox equilibrium
      Specific Conductance (µS/cm,  80°C)  = 114081
                          Density (g/cm³)  =   0.99700
                               Volume (L)  =   1.07139
                        Activity of water  =   0.978
                 Ionic strength (mol/kgw)  =   5.855e-01
                       Mass of water (kg)  =   1.023e+00
                 Total alkalinity (eq/kg)  =   2.930e-03
                       Total CO2 (mol/kg)  =   2.114e-01
                         Temperature (°C)  =  80.00
                           Pressure (atm)  = 20.00
                  Electrical balance (eq)  =  -1.122e-01
 Percent error, 100*(Cat-|An|)/(Cat+|An|)  =  -9.82
                               Iterations  =  19
                                  Total H  = 1.135669e+02
                                  Total O  = 5.733711e+01

----------------------------Distribution of species----------------------------

                                               Log       Log       Log    mole V
   Species          Molality    Activity  Molality  Activity     Gamma   cm³/mol

   H+              7.832e-05   5.791e-05    -4.106    -4.237    -0.131      0.00
   OH-             7.482e-09   4.415e-09    -8.126    -8.355    -0.229     -2.92
   H2O             5.551e+01   9.780e-01     1.744    -0.010     0.000     18.52
C(-4)         0.000e+00
   CH4             0.000e+00   0.000e+00  -116.420  -116.361     0.059     39.44
C(4)          2.114e-01
   CO2             2.018e-01   2.309e-01    -0.695    -0.637     0.059     37.36
   (CO2)2          3.233e-03   3.699e-03    -2.490    -2.432     0.059     74.72
   HCO3-           2.773e-03   1.823e-03    -2.557    -2.739    -0.182     27.63
   NaHCO3          2.280e-04   2.609e-04    -3.642    -3.583     0.059      1.80
   CaHCO3+         1.021e-04   6.889e-05    -3.991    -4.162    -0.171     11.05
   NaCO3-          2.118e-07   1.510e-07    -6.674    -6.821    -0.147      3.82
   CaCO3           3.536e-08   4.046e-08    -7.451    -7.393     0.059    -14.35
   CO3-2           1.289e-08   2.410e-09    -7.890    -8.618    -0.728     -5.47
   FeHCO3+         3.037e-14   2.165e-14   -13.518   -13.665    -0.147     (0)  
   FeCO3           5.868e-18   6.715e-18   -17.231   -17.173     0.059     (0)  
Ca            1.065e-02
   Ca+2            9.263e-03   2.005e-03    -2.033    -2.698    -0.665    -16.62
   CaSO4           1.279e-03   1.464e-03    -2.893    -2.834     0.059      8.69
   CaHCO3+         1.021e-04   6.889e-05    -3.991    -4.162    -0.171     11.05
   CaHSO4+         2.275e-06   1.621e-06    -5.643    -5.790    -0.147     (0)  
   CaCO3           3.536e-08   4.046e-08    -7.451    -7.393     0.059    -14.35
   CaOH+           7.895e-12   5.627e-12   -11.103   -11.250    -0.147     (0)  
Cl            5.650e-01
   Cl-             5.650e-01   3.443e-01    -0.248    -0.463    -0.215     18.44
   FeCl+2          1.020e-10   1.768e-11    -9.991   -10.753    -0.761     (0)  
   FeCl2+          9.785e-12   6.313e-12   -11.009   -11.200    -0.190     (0)  
   FeCl3           1.922e-13   2.200e-13   -12.716   -12.658     0.059     (0)  
   FeCl+           7.869e-14   5.608e-14   -13.104   -13.251    -0.147     (0)  
Fe(2)         8.053e-13
   Fe+2            5.701e-13   1.180e-13   -12.244   -12.928    -0.684    -18.45
   FeSO4           1.259e-13   1.441e-13   -12.900   -12.841     0.059    -13.27
   FeCl+           7.869e-14   5.608e-14   -13.104   -13.251    -0.147     (0)  
   FeHCO3+         3.037e-14   2.165e-14   -13.518   -13.665    -0.147     (0)  
   FeHSO4+         1.337e-16   9.530e-17   -15.874   -16.021    -0.147     (0)  
   FeOH+           3.138e-17   2.025e-17   -16.503   -16.694    -0.190     (0)  
   FeCO3           5.868e-18   6.715e-18   -17.231   -17.173     0.059     (0)  
   Fe(OH)2         1.461e-22   1.672e-22   -21.835   -21.777     0.059     (0)  
   Fe(OH)3-        2.597e-28   1.676e-28   -27.586   -27.776    -0.190     (0)  
   Fe(HS)2         0.000e+00   0.000e+00  -230.717  -230.659     0.059     (0)  
   Fe(HS)3-        0.000e+00   0.000e+00  -341.813  -341.960    -0.147     (0)  
Fe(3)         3.706e-08
   Fe(OH)2+        3.280e-08   2.156e-08    -7.484    -7.666    -0.182     (0)  
   FeOH+2          3.778e-09   6.547e-10    -8.423    -9.184    -0.761     (0)  
   Fe(OH)3         3.141e-10   3.594e-10    -9.503    -9.444     0.059     (0)  
   FeCl+2          1.020e-10   1.768e-11    -9.991   -10.753    -0.761     (0)  
   FeSO4+          5.395e-11   3.481e-11   -10.268   -10.458    -0.190     (0)  
   FeCl2+          9.785e-12   6.313e-12   -11.009   -11.200    -0.190     (0)  
   Fe+3            5.836e-12   3.854e-13   -11.234   -12.414    -1.180     (0)  
   Fe(SO4)2-       3.775e-12   2.690e-12   -11.423   -11.570    -0.147     (0)  
   FeCl3           1.922e-13   2.200e-13   -12.716   -12.658     0.059     (0)  
   Fe(OH)4-        5.509e-14   3.622e-14   -13.259   -13.441    -0.182     (0)  
   FeHSO4+2        3.067e-14   7.914e-15   -13.513   -14.102    -0.588     (0)  
   Fe2(OH)2+4      3.821e-16   1.693e-18   -15.418   -17.771    -2.353     (0)  
   Fe3(OH)4+5      5.000e-22   1.051e-25   -21.301   -24.978    -3.677     (0)  
H(0)          3.471e-37
   H2              1.736e-37   1.986e-37   -36.761   -36.702     0.059     28.57
K             1.056e-02
   K+              1.014e-02   6.105e-03    -1.994    -2.214    -0.220     10.70
   KSO4-           4.254e-04   2.797e-04    -3.371    -3.553    -0.182     35.01
Na            4.848e-01
   Na+             4.748e-01   3.253e-01    -0.323    -0.488    -0.164      0.90
   NaSO4-          9.702e-03   6.379e-03    -2.013    -2.195    -0.182     17.28
   NaHCO3          2.280e-04   2.609e-04    -3.642    -3.583     0.059      1.80
   NaCO3-          2.118e-07   1.510e-07    -6.674    -6.821    -0.147      3.82
   NaOH            1.253e-19   1.434e-19   -18.902   -18.843     0.059     (0)  
O(0)          1.650e-04
   O2              8.248e-05   9.438e-05    -4.084    -4.025     0.059     33.12
S(-2)         0.000e+00
   H2S             0.000e+00   0.000e+00  -111.103  -111.044     0.059     37.25
   HS-             0.000e+00   0.000e+00  -113.115  -113.344    -0.229     21.86
   S-2             0.000e+00   0.000e+00  -119.876  -120.637    -0.761     (0)  
   Fe(HS)2         0.000e+00   0.000e+00  -230.717  -230.659     0.059     (0)  
   Fe(HS)3-        0.000e+00   0.000e+00  -341.813  -341.960    -0.147     (0)  
S(6)          2.922e-02
   SO4-2           1.772e-02   2.909e-03    -1.752    -2.536    -0.785     19.67
   NaSO4-          9.702e-03   6.379e-03    -2.013    -2.195    -0.182     17.28
   CaSO4           1.279e-03   1.464e-03    -2.893    -2.834     0.059      8.69
   KSO4-           4.254e-04   2.797e-04    -3.371    -3.553    -0.182     35.01
   HSO4-           9.279e-05   6.613e-05    -4.033    -4.180    -0.147     42.29
   CaHSO4+         2.275e-06   1.621e-06    -5.643    -5.790    -0.147     (0)  
   FeSO4+          5.395e-11   3.481e-11   -10.268   -10.458    -0.190     (0)  
   Fe(SO4)2-       3.775e-12   2.690e-12   -11.423   -11.570    -0.147     (0)  
   FeSO4           1.259e-13   1.441e-13   -12.900   -12.841     0.059    -13.27
   FeHSO4+2        3.067e-14   7.914e-15   -13.513   -14.102    -0.588     (0)  
   FeHSO4+         1.337e-16   9.530e-17   -15.874   -16.021    -0.147     (0)  

------------------------------Saturation indices-------------------------------

  Phase               SI** log IAP   log K(353 K,  20 atm)

  Anhydrite        -0.27     -5.23   -4.96  CaSO4
  Aragonite        -2.45    -11.32   -8.86  CaCO3
  Calcite          -2.34    -11.32   -8.97  CaCO3
  CH4(g)         -113.33   -116.36   -3.03  CH4
  CO2(g)            1.27     -0.64   -1.91  CO2	 Pressure  20.0 atm, phi 0.937
  Fe(OH)3(a)       -4.61      0.27    4.88  Fe(OH)3
  FeS(ppt)       -118.12   -122.03   -3.92  FeS
  Goethite          2.94      0.28   -2.66  FeOOH
  Gypsum           -0.52     -5.25   -4.73  CaSO4:2H2O
  H2(g)           -33.57    -36.70   -3.14  H2
  H2O(g)           -0.34     -0.01    0.33  H2O
  H2S(g)         -109.64   -117.58   -7.94  H2S
  Halite           -2.56     -0.95    1.61  NaCl
  Hematite          8.10      0.57   -7.54  Fe2O3
  Jarosite-K       -6.34    -19.16  -12.83  KFe3(SO4)2(OH)6
  Mackinawite    -117.39   -122.03   -4.64  FeS
  Melanterite     -13.75    -15.53   -1.78  FeSO4:7H2O
  O2(g)            -0.91     -4.03   -3.11  O2
  Pyrite         -189.08   -206.27  -17.19  FeS2
  Siderite        -10.39    -21.55  -11.16  FeCO3
  Sulfur          -81.49    -77.70    3.79  S
  Sylvite          -3.81     -2.68    1.13  KCl

**For a gas, SI = log10(fugacity). Fugacity = pressure * phi / 1 atm.
  For ideal gases, phi = 1.

------------------
End of simulation.
------------------

-------------------------------------
Reading input data for simulation 17.
-------------------------------------

-------------------------------
End of Run after 0.359 Seconds.
-------------------------------

